


 15 15  0  0  0  0  0  0  0  0999 V2000
  -18.8596   17.5303   25.5979 C   0  0  0  0  0  0  0  0  0  0  0  0
  -19.5381   17.6108   26.9557 C   0  0  0  0  0  0  0  0  0  0  0  0
  -20.9753   17.5895   27.0449 C   0  0  0  0  0  0  0  0  0  0  0  0
  -21.6182   17.6658   28.3314 C   0  0  0  0  0  0  0  0  0  0  0  0
  -23.0555   17.6444   28.4206 C   0  0  0  0  0  0  0  0  0  0  0  0
  -23.7891   17.5543   27.3150 F   0  0  0  0  0  0  0  0  0  0  0  0
  -23.6983   17.7207   29.7072 C   0  0  0  0  0  0  0  0  0  0  0  0
  -18.7437   17.7084   28.1530 C   0  0  0  0  0  0  0  0  0  0  0  0
  -18.9654   16.1119   25.0619 C   0  0  0  0  0  0  0  0  0  0  0  0
  -17.6799   15.4222   25.2436 N   0  0  0  0  0  0  0  0  0  0  0  0
  -16.9788   16.0893   25.5659 H   0  0  0  0  0  0  0  0  0  0  0  0
  -15.8089   15.7081   23.0266 C   0  0  0  0  0  0  0  0  0  0  0  0
  -17.1662   14.7256   23.7111 S   0  0  0  0  0  0  0  0  0  0  0  0
  -18.3415   14.7263   22.7309 O   0  0  0  0  0  0  0  0  0  0  0  0
  -16.6918   13.2882   23.9377 O   0  0  0  0  0  0  0  0  0  0  0  0
 12 13  1  0  0  0
 13 14  2  0  0  0
 13 15  2  0  0  0
 13 10  1  0  0  0
 10  9  1  0  0  0
 10 11  1  0  0  0
  9  1  1  0  0  0
  1  2  1  0  0  0
  2  3  1  0  0  0
  2  8  2  0  0  0
  3  4  2  0  0  0
  4  5  1  0  0  0
  5  6  1  0  0  0
  5  7  2  0  0  0
  7  8  1  0  0  0
M  END
> <minimizedAffinity>
0.77162

> <CNNscore>
0.2388385087

> <CNNaffinity>
7.9638242722

$$$$
