


 19 20  0  0  0  0  0  0  0  0999 V2000
  -18.7276   13.5682   23.1460 C   0  0  0  0  0  0  0  0  0  0  0  0
  -18.9122   14.7820   23.8989 C   0  0  0  0  0  0  0  0  0  0  0  0
  -20.0477   15.6276   23.6348 C   0  0  0  0  0  0  0  0  0  0  0  0
  -20.2322   16.8414   24.3877 C   0  0  0  0  0  0  0  0  0  0  0  0
  -21.3677   17.6871   24.1235 C   0  0  0  0  0  0  0  0  0  0  0  0
  -19.6786   13.2001   22.1290 C   0  0  0  0  0  0  0  0  0  0  0  0
  -16.3260   13.2867   23.9433 C   0  0  0  0  0  0  0  0  0  0  0  0
  -16.2536   14.5358   24.1663 O   0  0  0  0  0  0  0  0  0  0  0  0
  -17.5687   12.7051   23.4156 N   0  0  0  0  0  0  0  0  0  0  0  0
  -17.6247   11.7376   23.2428 H   0  0  0  0  0  0  0  0  0  0  0  0
  -14.7311   11.5683   23.1998 C   0  0  0  0  0  0  0  0  0  0  0  0
  -15.2065   12.4530   24.2037 O   0  0  0  0  0  0  0  0  0  0  0  0
  -19.2286   17.2300   25.4610 C   0  0  0  0  0  0  0  0  0  0  0  0
  -19.9636   17.5278   26.7578 C   0  0  0  0  0  0  0  0  0  0  0  0
  -21.3998   17.4340   26.8094 C   0  0  0  0  0  0  0  0  0  0  0  0
  -22.0962   17.7161   28.0381 C   0  0  0  0  0  0  0  0  0  0  0  0
  -23.4852   17.6254   28.0881 N   0  0  0  0  0  0  0  0  0  0  0  0
  -24.1586   17.8983   29.2763 C   0  0  0  0  0  0  0  0  0  0  0  0
  -19.2237   17.9038   27.9348 C   0  0  0  0  0  0  0  0  0  0  0  0
 11 12  1  0  0  0
 12  7  1  0  0  0
  7  8  2  0  0  0
  7  9  1  0  0  0
  9  1  1  0  0  0
  9 10  1  0  0  0
  1  2  1  0  0  0
  1  6  2  0  0  0
  2  3  2  0  0  0
  3  4  1  0  0  0
  4 13  1  0  0  0
  4  5  2  0  0  0
 13 14  1  0  0  0
 14 15  1  0  0  0
 14 19  2  0  0  0
 15 16  2  0  0  0
 16 17  1  0  0  0
 17 18  2  0  0  0
 18 19  1  0  0  0
  5  6  1  0  0  0
M  END
> <minimizedAffinity>
3.27012

> <CNNscore>
0.0484076478

> <CNNaffinity>
6.7587175369

$$$$
