


 11 11  0  0  0  0  0  0  0  0999 V2000
  -16.7597   14.9191   24.6337 C   0  0  0  0  0  0  0  0  0  0  0  0
  -15.7826   14.0601   24.0161 C   0  0  0  0  0  0  0  0  0  0  0  0
  -16.1856   13.0974   23.0936 N   0  0  0  0  0  0  0  0  0  0  0  0
  -15.2727   12.2949   22.5166 N   0  0  0  0  0  0  0  0  0  0  0  0
  -18.1535   14.7827   24.2976 C   0  0  0  0  0  0  0  0  0  0  0  0
  -14.6013   11.7098   22.0969 H   0  0  0  0  0  0  0  0  0  0  0  0
  -16.3200   15.9696   25.6404 C   0  0  0  0  0  0  0  0  0  0  0  0
  -15.0851   16.2332   25.7854 O   0  0  0  0  0  0  0  0  0  0  0  0
  -17.2887   16.6567   26.4188 O   0  0  0  0  0  0  0  0  0  0  0  0
  -18.8273   15.3662   27.7353 C   0  0  0  0  0  0  0  0  0  0  0  0
  -17.5731   16.2248   27.7413 C   0  0  0  0  0  0  0  0  0  0  0  0
 10 11  1  0  0  0
 11  9  1  0  0  0
  9  7  1  0  0  0
  7  8  2  0  0  0
  7  1  1  0  0  0
  1  2  1  0  0  0
  1  5  2  0  0  0
  2  3  2  0  0  0
  3  4  1  0  0  0
  4  5  1  0  0  0
  4  6  1  0  0  0
M  END
> <minimizedAffinity>
0.03598

> <CNNscore>
0.8608528376

> <CNNaffinity>
7.2739868164

$$$$
