


 15 15  0  0  0  0  0  0  0  0999 V2000
  -19.6251   16.0353   24.7962 C   0  0  0  0  0  0  0  0  0  0  0  0
  -18.5793   15.3033   24.2387 N   0  0  0  0  0  0  0  0  0  0  0  0
  -18.8194   14.0370   23.7109 C   0  0  0  0  0  0  0  0  0  0  0  0
  -17.7381   13.2802   23.1346 C   0  0  0  0  0  0  0  0  0  0  0  0
  -16.0948   13.9632   23.0968 Cl  0  0  0  0  0  0  0  0  0  0  0  0
  -17.9864   11.9707   22.5887 C   0  0  0  0  0  0  0  0  0  0  0  0
  -20.9109   15.5008   24.8258 N   0  0  0  0  0  0  0  0  0  0  0  0
  -16.8452   11.1720   21.9804 C   0  0  0  0  0  0  0  0  0  0  0  0
  -16.8083    9.9093   22.1198 O   0  0  0  0  0  0  0  0  0  0  0  0
  -15.7842   11.8601   21.2309 N   0  0  0  0  0  0  0  0  0  0  0  0
  -15.8128   12.8383   21.1230 H   0  0  0  0  0  0  0  0  0  0  0  0
  -15.0450   11.3428   20.8370 H   0  0  0  0  0  0  0  0  0  0  0  0
  -19.5038   17.3705   26.8850 C   0  0  0  0  0  0  0  0  0  0  0  0
  -19.3630   17.4172   25.3722 C   0  0  0  0  0  0  0  0  0  0  0  0
  -17.9551   17.8594   25.0078 C   0  0  0  0  0  0  0  0  0  0  0  0
 13 14  1  0  0  0
 14 15  1  0  0  0
 14  1  1  0  0  0
  1  2  1  0  0  0
  1  7  2  0  0  0
  2  3  2  0  0  0
  3  4  1  0  0  0
  4  5  1  0  0  0
  4  6  2  0  0  0
  6  7  1  0  0  0
  6  8  1  0  0  0
  8  9  2  0  0  0
  8 10  1  0  0  0
 10 11  1  0  0  0
 10 12  1  0  0  0
M  END
> <minimizedAffinity>
0.07008

> <CNNscore>
0.0917663947

> <CNNaffinity>
6.2762403488

$$$$
