


 12 12  0  0  0  0  0  0  0  0999 V2000
  -15.2849   16.0559   24.8059 N   0  0  0  0  0  0  0  0  0  0  0  0
  -16.0911   14.8922   25.2020 C   0  0  0  0  0  0  0  0  0  0  0  0
  -16.4754   14.7659   26.4069 O   0  0  0  0  0  0  0  0  0  0  0  0
  -14.9873   16.1538   23.8726 H   0  0  0  0  0  0  0  0  0  0  0  0
  -16.4653   13.8403   24.1707 C   0  0  0  0  0  0  0  0  0  0  0  0
  -15.6985   12.6253   24.0704 C   0  0  0  0  0  0  0  0  0  0  0  0
  -16.0414   11.6614   23.1254 N   0  0  0  0  0  0  0  0  0  0  0  0
  -15.3251   10.5263   23.0317 N   0  0  0  0  0  0  0  0  0  0  0  0
  -17.5498   14.0515   23.3225 N   0  0  0  0  0  0  0  0  0  0  0  0
  -16.8080   11.8106   22.5258 H   0  0  0  0  0  0  0  0  0  0  0  0
  -16.1527   17.8923   26.1608 C   0  0  0  0  0  0  0  0  0  0  0  0
  -14.9231   17.0733   25.8033 C   0  0  0  0  0  0  0  0  0  0  0  0
 11 12  1  0  0  0
 12  1  1  0  0  0
  1  2  1  0  0  0
  1  4  1  0  0  0
  2  3  2  0  0  0
  2  5  1  0  0  0
  5  6  2  0  0  0
  5  9  1  0  0  0
  6  7  1  0  0  0
  7  8  1  0  0  0
  7 10  1  0  0  0
  8  9  2  0  0  0
M  END
> <minimizedAffinity>
0.00920

> <CNNscore>
0.9887295365

> <CNNaffinity>
7.2276163101

$$$$
