


 15 16  0  0  0  0  0  0  0  0999 V2000
  -19.1261   15.9569   25.0666 N   0  0  0  0  0  0  0  0  0  0  0  0
  -19.7893   17.1866   25.5233 C   0  0  0  0  0  0  0  0  0  0  0  0
  -20.7391   17.6866   24.8428 O   0  0  0  0  0  0  0  0  0  0  0  0
  -18.3903   15.5695   25.5937 H   0  0  0  0  0  0  0  0  0  0  0  0
  -17.3530   14.2674   23.5656 N   0  0  0  0  0  0  0  0  0  0  0  0
  -18.6483   14.4640   23.0930 C   0  0  0  0  0  0  0  0  0  0  0  0
  -19.5613   15.3055   23.8227 C   0  0  0  0  0  0  0  0  0  0  0  0
  -20.9006   15.5087   23.3339 C   0  0  0  0  0  0  0  0  0  0  0  0
  -16.9546   14.8636   24.7041 N   0  0  0  0  0  0  0  0  0  0  0  0
  -15.6290   12.5543   23.7970 C   0  0  0  0  0  0  0  0  0  0  0  0
  -16.4212   13.4086   22.8208 C   0  0  0  0  0  0  0  0  0  0  0  0
  -19.3392   17.8601   26.8094 C   0  0  0  0  0  0  0  0  0  0  0  0
  -18.0714   17.1913   27.3148 C   0  0  0  0  0  0  0  0  0  0  0  0
  -17.6212   17.8649   28.6010 C   0  0  0  0  0  0  0  0  0  0  0  0
  -20.4322   17.7320   27.8579 C   0  0  0  0  0  0  0  0  0  0  0  0
 10 11  1  0  0  0
 11  5  1  0  0  0
  5  6  1  0  0  0
  5  9  1  0  0  0
  6  7  2  0  0  0
  7  1  1  0  0  0
  7  8  1  0  0  0
  1  2  1  0  0  0
  1  4  1  0  0  0
  2  3  2  0  0  0
  2 12  1  0  0  0
 12 13  1  0  0  0
 12 15  1  0  0  0
 13 14  1  0  0  0
 14 15  1  0  0  0
  8  9  2  0  0  0
M  END
> <minimizedAffinity>
0.19146

> <CNNscore>
0.5592856407

> <CNNaffinity>
6.6170582771

$$$$
