


 12 12  0  0  0  0  0  0  0  0999 V2000
  -14.7398   15.6600   25.5090 O   0  0  0  0  0  0  0  0  0  0  0  0
  -15.9383   15.4609   25.1359 C   0  0  0  0  0  0  0  0  0  0  0  0
  -16.2694   14.2956   24.4487 N   0  0  0  0  0  0  0  0  0  0  0  0
  -17.5829   14.0774   24.0399 C   0  0  0  0  0  0  0  0  0  0  0  0
  -17.9252   12.8724   23.3293 C   0  0  0  0  0  0  0  0  0  0  0  0
  -19.2834   12.6469   22.9066 C   0  0  0  0  0  0  0  0  0  0  0  0
  -19.7493   11.0070   21.9395 Br  0  0  0  0  0  0  0  0  0  0  0  0
  -16.9542   16.4404   25.4239 C   0  0  0  0  0  0  0  0  0  0  0  0
  -15.2325   13.2958   24.1549 C   0  0  0  0  0  0  0  0  0  0  0  0
  -15.2362   12.9843   22.6672 C   0  0  0  0  0  0  0  0  0  0  0  0
  -14.2175   12.0378   22.3793 O   0  0  0  0  0  0  0  0  0  0  0  0
  -13.3552   12.4043   22.6309 H   0  0  0  0  0  0  0  0  0  0  0  0
  1  2  2  0  0  0
  2  3  1  0  0  0
  2  8  1  0  0  0
  3  9  1  0  0  0
  3  4  1  0  0  0
  9 10  1  0  0  0
 10 11  1  0  0  0
 11 12  1  0  0  0
  4  5  2  0  0  0
  5  6  1  0  0  0
  6  7  1  0  0  0
  6  8  2  0  0  0
M  END
> <minimizedAffinity>
0.00926

> <CNNscore>
0.9736931324

> <CNNaffinity>
6.8347201347

$$$$
