


 15 16  0  0  0  0  0  0  0  0999 V2000
  -19.1611   16.3009   23.2080 N   0  0  0  0  0  0  0  0  0  0  0  0
  -19.3246   16.5946   24.5108 N   0  0  0  0  0  0  0  0  0  0  0  0
  -18.2443   16.5065   25.3856 C   0  0  0  0  0  0  0  0  0  0  0  0
  -16.8805   16.0786   24.8684 C   0  0  0  0  0  0  0  0  0  0  0  0
  -18.4194   16.8209   26.7801 C   0  0  0  0  0  0  0  0  0  0  0  0
  -17.3023   16.7299   27.6845 C   0  0  0  0  0  0  0  0  0  0  0  0
  -17.9114   15.9088   22.7341 C   0  0  0  0  0  0  0  0  0  0  0  0
  -17.7569   15.6314   21.5035 O   0  0  0  0  0  0  0  0  0  0  0  0
  -20.3012   16.3938   22.2848 C   0  0  0  0  0  0  0  0  0  0  0  0
  -22.0235   13.4759   25.1554 C   0  0  0  0  0  0  0  0  0  0  0  0
  -21.4515   14.4898   24.1781 C   0  0  0  0  0  0  0  0  0  0  0  0
  -22.1041   15.7603   23.9942 C   0  0  0  0  0  0  0  0  0  0  0  0
  -21.5620   16.7210   23.0681 C   0  0  0  0  0  0  0  0  0  0  0  0
  -22.1717   17.9080   22.8965 O   0  0  0  0  0  0  0  0  0  0  0  0
  -20.2961   14.1900   23.4603 N   0  0  0  0  0  0  0  0  0  0  0  0
 10 11  1  0  0  0
 11 12  1  0  0  0
 11 15  2  0  0  0
 12 13  2  0  0  0
 13  9  1  0  0  0
 13 14  1  0  0  0
  9  1  1  0  0  0
  1  2  1  0  0  0
  1  7  1  0  0  0
  2  3  2  0  0  0
  3  4  1  0  0  0
  3  5  1  0  0  0
  5  6  2  0  0  0
  6  7  1  0  0  0
  7  8  2  0  0  0
 14 15  1  0  0  0
M  END
> <minimizedAffinity>
0.28234

> <CNNscore>
0.0001249916

> <CNNaffinity>
3.1098673344

$$$$
