


 16 18  0  0  0  0  0  0  0  0999 V2000
  -17.7304   15.3133   24.8334 C   0  0  0  0  0  0  0  0  0  0  0  0
  -17.7544   14.3459   23.7668 C   0  0  0  0  0  0  0  0  0  0  0  0
  -16.5995   13.6378   23.4427 N   0  0  0  0  0  0  0  0  0  0  0  0
  -16.6220   12.7340   22.4462 N   0  0  0  0  0  0  0  0  0  0  0  0
  -15.4672   12.0260   22.1221 C   0  0  0  0  0  0  0  0  0  0  0  0
  -15.4912   11.0586   21.0555 C   0  0  0  0  0  0  0  0  0  0  0  0
  -14.2971   10.3264   20.7204 C   0  0  0  0  0  0  0  0  0  0  0  0
  -14.3203    9.3909   19.6889 N   0  0  0  0  0  0  0  0  0  0  0  0
  -17.8000   12.5065   21.7388 C   0  0  0  0  0  0  0  0  0  0  0  0
  -20.0301   15.9713   24.4650 O   0  0  0  0  0  0  0  0  0  0  0  0
  -18.9906   16.0860   25.1871 C   0  0  0  0  0  0  0  0  0  0  0  0
  -19.0071   16.9661   26.3644 N   0  0  0  0  0  0  0  0  0  0  0  0
  -18.2019   17.0550   26.9239 H   0  0  0  0  0  0  0  0  0  0  0  0
  -20.2258   17.7135   26.7065 C   0  0  0  0  0  0  0  0  0  0  0  0
  -20.8622   17.1053   27.9456 C   0  0  0  0  0  0  0  0  0  0  0  0
  -21.2060   17.6424   25.5468 C   0  0  0  0  0  0  0  0  0  0  0  0
 10 11  2  0  0  0
 11 12  1  0  0  0
 11  1  1  0  0  0
 12 14  1  0  0  0
 12 13  1  0  0  0
 14 15  1  0  0  0
 14 16  1  0  0  0
 15 16  1  0  0  0
  1  2  1  0  0  0
  1  9  2  0  0  0
  2  3  2  0  0  0
  3  4  1  0  0  0
  4  5  1  0  0  0
  4  9  1  0  0  0
  5  6  2  0  0  0
  6  7  1  0  0  0
  7  8  2  0  0  0
  8  9  1  0  0  0
M  END
> <minimizedAffinity>
0.46768

> <CNNscore>
0.3394636512

> <CNNaffinity>
6.3093709946

$$$$
