


 18 19  0  0  0  0  0  0  0  0999 V2000
  -15.4684   10.2490   22.0659 N   0  0  0  0  0  0  0  0  0  0  0  0
  -15.4828   11.4759   22.8754 C   0  0  0  0  0  0  0  0  0  0  0  0
  -14.4272   11.8554   23.4729 O   0  0  0  0  0  0  0  0  0  0  0  0
  -16.7180   12.2639   22.9937 N   0  0  0  0  0  0  0  0  0  0  0  0
  -16.7324   13.4909   23.8032 C   0  0  0  0  0  0  0  0  0  0  0  0
  -18.1198   14.1102   23.7598 C   0  0  0  0  0  0  0  0  0  0  0  0
  -18.1342   15.3372   24.5693 N   0  0  0  0  0  0  0  0  0  0  0  0
  -16.9133   15.7761   25.2604 C   0  0  0  0  0  0  0  0  0  0  0  0
  -17.9389   11.8250   22.3026 C   0  0  0  0  0  0  0  0  0  0  0  0
  -14.6410    9.7212   21.9866 H   0  0  0  0  0  0  0  0  0  0  0  0
  -16.2860    9.9550   21.6030 H   0  0  0  0  0  0  0  0  0  0  0  0
  -19.3695   16.1252   24.6877 C   0  0  0  0  0  0  0  0  0  0  0  0
  -20.2593   16.2428   23.5613 C   0  0  0  0  0  0  0  0  0  0  0  0
  -21.4696   17.0147   23.6773 C   0  0  0  0  0  0  0  0  0  0  0  0
  -22.3594   17.1324   22.5510 C   0  0  0  0  0  0  0  0  0  0  0  0
  -22.0633   16.5281   21.4037 F   0  0  0  0  0  0  0  0  0  0  0  0
  -23.5696   17.9044   22.6669 C   0  0  0  0  0  0  0  0  0  0  0  0
  -19.6901   16.7794   25.9300 C   0  0  0  0  0  0  0  0  0  0  0  0
  1  2  1  0  0  0
  1 10  1  0  0  0
  1 11  1  0  0  0
  2  3  2  0  0  0
  2  4  1  0  0  0
  4  5  1  0  0  0
  4  9  1  0  0  0
  5  6  1  0  0  0
  6  7  1  0  0  0
  7  8  1  0  0  0
  7 12  1  0  0  0
  8  9  1  0  0  0
 12 13  1  0  0  0
 12 18  2  0  0  0
 13 14  2  0  0  0
 14 15  1  0  0  0
 15 16  1  0  0  0
 15 17  2  0  0  0
 17 18  1  0  0  0
M  END
> <minimizedAffinity>
0.01149

> <CNNscore>
0.9550914168

> <CNNaffinity>
8.3371829987

$$$$
