


 15 16  0  0  0  0  0  0  0  0999 V2000
  -19.2981   11.5905   20.4785 C   0  0  0  0  0  0  0  0  0  0  0  0
  -19.6124   12.2681   21.7099 C   0  0  0  0  0  0  0  0  0  0  0  0
  -18.5841   12.9826   22.4214 C   0  0  0  0  0  0  0  0  0  0  0  0
  -18.8985   13.6601   23.6528 C   0  0  0  0  0  0  0  0  0  0  0  0
  -17.8703   14.3748   24.3643 C   0  0  0  0  0  0  0  0  0  0  0  0
  -18.1911   15.0663   25.6211 N   0  0  0  0  0  0  0  0  0  0  0  0
  -17.1416   15.7958   26.3473 C   0  0  0  0  0  0  0  0  0  0  0  0
  -15.9568   15.8285   25.8886 O   0  0  0  0  0  0  0  0  0  0  0  0
  -17.4734   16.5109   27.6469 C   0  0  0  0  0  0  0  0  0  0  0  0
  -16.2219   17.1811   28.1903 C   0  0  0  0  0  0  0  0  0  0  0  0
  -16.5537   17.8962   29.4899 C   0  0  0  0  0  0  0  0  0  0  0  0
  -16.5277   14.4119   23.8444 C   0  0  0  0  0  0  0  0  0  0  0  0
  -19.1088   15.0411   25.9766 H   0  0  0  0  0  0  0  0  0  0  0  0
  -21.6119   11.4442   19.6578 C   0  0  0  0  0  0  0  0  0  0  0  0
  -20.3118   10.8859   19.7770 O   0  0  0  0  0  0  0  0  0  0  0  0
 14 15  1  0  0  0
 15  1  1  0  0  0
  1  2  1  0  0  0
  1 12  2  0  0  0
  2  3  2  0  0  0
  3  4  1  0  0  0
  4  5  2  0  0  0
  5  6  1  0  0  0
  5 12  1  0  0  0
  6  7  1  0  0  0
  6 13  1  0  0  0
  7  8  2  0  0  0
  7  9  1  0  0  0
  9 10  1  0  0  0
 10 11  1  0  0  0
 11 12  1  0  0  0
M  END
> <minimizedAffinity>
1.31762

> <CNNscore>
0.1259973943

> <CNNaffinity>
5.8711881638

$$$$
