


 16 17  0  0  0  0  0  0  0  0999 V2000
  -16.7946   13.6886   23.4659 C   0  0  0  0  0  0  0  0  0  0  0  0
  -17.3388   12.3076   23.7932 C   0  0  0  0  0  0  0  0  0  0  0  0
  -16.4255   14.4061   24.7540 C   0  0  0  0  0  0  0  0  0  0  0  0
  -14.4358   13.7600   20.3152 C   0  0  0  0  0  0  0  0  0  0  0  0
  -15.6301   13.8921   21.1620 N   0  0  0  0  0  0  0  0  0  0  0  0
  -15.5597   13.5520   22.5903 C   0  0  0  0  0  0  0  0  0  0  0  0
  -14.4661   13.1437   23.0931 O   0  0  0  0  0  0  0  0  0  0  0  0
  -16.4771   14.2085   20.7724 H   0  0  0  0  0  0  0  0  0  0  0  0
  -17.8543   14.4885   22.7260 C   0  0  0  0  0  0  0  0  0  0  0  0
  -18.9596   14.8811   23.6926 C   0  0  0  0  0  0  0  0  0  0  0  0
  -18.7897   16.0208   24.5566 C   0  0  0  0  0  0  0  0  0  0  0  0
  -19.8370   16.3927   25.4725 C   0  0  0  0  0  0  0  0  0  0  0  0
  -19.6671   17.5324   26.3364 C   0  0  0  0  0  0  0  0  0  0  0  0
  -20.7144   17.9044   27.2522 C   0  0  0  0  0  0  0  0  0  0  0  0
  -20.1770   14.1133   23.7447 C   0  0  0  0  0  0  0  0  0  0  0  0
  -20.3340   13.0608   22.9469 F   0  0  0  0  0  0  0  0  0  0  0  0
  4  5  1  0  0  0
  5  6  1  0  0  0
  5  8  1  0  0  0
  6  7  2  0  0  0
  6  1  1  0  0  0
  1  9  1  0  0  0
  1  2  1  0  0  0
  1  3  1  0  0  0
  9 10  1  0  0  0
 10 11  1  0  0  0
 10 15  2  0  0  0
 11 12  2  0  0  0
 12 13  1  0  0  0
 13 14  2  0  0  0
 14 15  1  0  0  0
 15 16  1  0  0  0
  2  3  1  0  0  0
M  END
> <minimizedAffinity>
0.74694

> <CNNscore>
0.0649017245

> <CNNaffinity>
6.2065281868

$$$$
