


 17 18  0  0  0  0  0  0  0  0999 V2000
  -14.9174   15.9205   26.0845 C   0  0  0  0  0  0  0  0  0  0  0  0
  -16.1342   15.0942   25.7010 C   0  0  0  0  0  0  0  0  0  0  0  0
  -16.1533   13.7244   25.9526 N   0  0  0  0  0  0  0  0  0  0  0  0
  -17.2683   12.9673   25.6011 C   0  0  0  0  0  0  0  0  0  0  0  0
  -17.2881   11.5510   25.8613 C   0  0  0  0  0  0  0  0  0  0  0  0
  -18.4410   10.7681   25.4978 C   0  0  0  0  0  0  0  0  0  0  0  0
  -18.4609    9.3517   25.7581 C   0  0  0  0  0  0  0  0  0  0  0  0
  -19.6138    8.5688   25.3947 C   0  0  0  0  0  0  0  0  0  0  0  0
  -18.4014   13.6008   24.9775 C   0  0  0  0  0  0  0  0  0  0  0  0
  -17.2300   15.7069   25.0979 N   0  0  0  0  0  0  0  0  0  0  0  0
  -17.2098   17.1526   24.8322 C   0  0  0  0  0  0  0  0  0  0  0  0
  -18.4143   17.8055   25.4904 C   0  0  0  0  0  0  0  0  0  0  0  0
  -19.6552   16.9713   25.2170 C   0  0  0  0  0  0  0  0  0  0  0  0
  -19.8290   16.4472   24.0723 O   0  0  0  0  0  0  0  0  0  0  0  0
  -20.6543   16.7708   26.2765 N   0  0  0  0  0  0  0  0  0  0  0  0
  -20.5197   17.1769   27.1632 H   0  0  0  0  0  0  0  0  0  0  0  0
  -21.4580   16.2305   26.0994 H   0  0  0  0  0  0  0  0  0  0  0  0
  1  2  1  0  0  0
  2  3  2  0  0  0
  2 10  1  0  0  0
  3  4  1  0  0  0
  4  5  1  0  0  0
  4  9  2  0  0  0
  5  6  2  0  0  0
  6  7  1  0  0  0
  7  8  2  0  0  0
  8  9  1  0  0  0
  9 10  1  0  0  0
 10 11  1  0  0  0
 11 12  1  0  0  0
 12 13  1  0  0  0
 13 14  2  0  0  0
 13 15  1  0  0  0
 15 16  1  0  0  0
 15 17  1  0  0  0
M  END
> <minimizedAffinity>
0.24067

> <CNNscore>
0.0002097775

> <CNNaffinity>
3.8244447708

$$$$
