
 OpenBabel11261916433D

 10 10  0  0  0  0  0  0  0  0999 V2000
  -17.1690   11.4499   22.5351 Br  0  0  0  0  0  0  0  0  0  0  0  0
  -18.1872   11.7379   24.0705 C   0  0  0  0  0  0  0  0  0  0  0  0
  -18.5471   12.9312   24.6367 C   0  0  0  0  0  0  0  0  0  0  0  0
  -19.3001   12.5997   25.7295 N   0  0  0  0  0  0  0  0  0  0  0  0
  -19.4325   11.2680   25.9028 N   0  0  0  0  0  0  0  0  0  0  0  0
  -18.7412   10.7443   24.8860 C   0  0  0  0  0  0  0  0  0  0  0  0
  -19.9148   13.5166   26.6670 C   0  0  0  0  0  0  0  0  0  0  0  0
  -20.8520   12.8101   27.6371 C   0  0  0  0  0  0  0  0  0  0  0  0
  -22.1779   12.8293   27.1039 O   0  0  0  0  0  0  0  0  0  0  0  0
  -22.8023   11.5558   27.2121 C   0  0  0  0  0  0  0  0  0  0  0  0
  1  2  1  0  0  0  0
  2  3  2  0  0  0  0
  2  6  1  0  0  0  0
  3  4  1  0  0  0  0
  4  7  1  0  0  0  0
  4  5  1  0  0  0  0
  5  6  2  0  0  0  0
  7  8  1  0  0  0  0
  8  9  1  0  0  0  0
  9 10  1  0  0  0  0
M  END
>  <minimizedAffinity>
-4.47857

$$$$
