
 OpenBabel11261916433D

 16 18  0  0  0  0  0  0  0  0999 V2000
  -19.3908   12.4414   25.6132 C   0  0  0  0  0  0  0  0  0  0  0  0
  -19.4756   11.0292   25.5111 C   0  0  0  0  0  0  0  0  0  0  0  0
  -18.7220   10.3168   24.5737 C   0  0  0  0  0  0  0  0  0  0  0  0
  -17.8923   11.0385   23.7491 C   0  0  0  0  0  0  0  0  0  0  0  0
  -17.0835   10.5209   22.7881 O   0  0  0  0  0  0  0  0  0  0  0  0
  -16.4698   11.7198   22.2737 C   0  0  0  0  0  0  0  0  0  0  0  0
  -16.9259   12.9234   22.9299 O   0  0  0  0  0  0  0  0  0  0  0  0
  -17.8043   12.4087   23.8341 C   0  0  0  0  0  0  0  0  0  0  0  0
  -18.5355   13.1427   24.7506 C   0  0  0  0  0  0  0  0  0  0  0  0
  -19.8476   14.1495   27.1655 O   0  0  0  0  0  0  0  0  0  0  0  0
  -20.2284   13.0919   26.6686 C   0  0  0  0  0  0  0  0  0  0  0  0
  -21.4060   12.4750   27.0554 N   0  0  0  0  0  0  0  0  0  0  0  0
  -21.6742   11.5751   26.6839 H   0  0  0  0  0  0  0  0  0  0  0  0
  -22.2346   13.0531   28.0708 C   0  0  0  0  0  0  0  0  0  0  0  0
  -23.7305   12.9142   27.9964 C   0  0  0  0  0  0  0  0  0  0  0  0
  -22.9648   12.2058   29.0745 C   0  0  0  0  0  0  0  0  0  0  0  0
  1  2  1  0  0  0  0
  1  9  2  0  0  0  0
  2  3  2  0  0  0  0
  3  4  1  0  0  0  0
  4  5  1  0  0  0  0
  4  8  2  0  0  0  0
  5  6  1  0  0  0  0
  6  7  1  0  0  0  0
  7  8  1  0  0  0  0
  8  9  1  0  0  0  0
 10 11  2  0  0  0  0
 11 12  1  0  0  0  0
 11  1  1  0  0  0  0
 12 14  1  0  0  0  0
 12 13  1  0  0  0  0
 14 15  1  0  0  0  0
 14 16  1  0  0  0  0
 15 16  1  0  0  0  0
M  END
>  <minimizedAffinity>
-6.98306

$$$$
