
 OpenBabel11261916433D

 15 16  0  0  0  0  0  0  0  0999 V2000
  -16.9370   13.0135   23.2542 C   0  0  0  0  0  0  0  0  0  0  0  0
  -16.6641   11.7050   22.8457 C   0  0  0  0  0  0  0  0  0  0  0  0
  -17.4557   10.6521   23.2866 C   0  0  0  0  0  0  0  0  0  0  0  0
  -18.4960   10.9036   24.1718 C   0  0  0  0  0  0  0  0  0  0  0  0
  -18.7255   12.1971   24.6758 C   0  0  0  0  0  0  0  0  0  0  0  0
  -19.6745   12.2445   25.7069 N   0  0  0  0  0  0  0  0  0  0  0  0
  -19.8090   13.0599   26.7818 C   0  0  0  0  0  0  0  0  0  0  0  0
  -20.4646   12.6068   27.7299 O   0  0  0  0  0  0  0  0  0  0  0  0
  -19.3009   14.4770   26.8627 C   0  0  0  0  0  0  0  0  0  0  0  0
  -18.0701   14.8653   26.0773 C   0  0  0  0  0  0  0  0  0  0  0  0
  -18.2887   14.6902   24.5880 C   0  0  0  0  0  0  0  0  0  0  0  0
  -17.9777   13.2744   24.1802 C   0  0  0  0  0  0  0  0  0  0  0  0
  -20.1618   11.3768   25.8950 H   0  0  0  0  0  0  0  0  0  0  0  0
  -14.9177   13.8005   22.2708 C   0  0  0  0  0  0  0  0  0  0  0  0
  -16.1919   14.0903   22.8362 O   0  0  0  0  0  0  0  0  0  0  0  0
  1  2  1  0  0  0  0
  1 12  2  0  0  0  0
  2  3  2  0  0  0  0
  3  4  1  0  0  0  0
  4  5  2  0  0  0  0
  5  6  1  0  0  0  0
  5 12  1  0  0  0  0
  6  7  1  0  0  0  0
  6 13  1  0  0  0  0
  7  8  2  0  0  0  0
  7  9  1  0  0  0  0
  9 10  1  0  0  0  0
 10 11  1  0  0  0  0
 11 12  1  0  0  0  0
 14 15  1  0  0  0  0
 15  1  1  0  0  0  0
M  END
>  <minimizedAffinity>
-5.91609

$$$$
