
 OpenBabel11261916463D

 16 17  0  0  0  0  0  0  0  0999 V2000
  -19.3453   12.5474   24.5980 N   0  0  0  0  0  0  0  0  0  0  0  0
  -18.4875   11.5429   24.1824 C   0  0  0  0  0  0  0  0  0  0  0  0
  -18.2997   10.4794   24.7676 O   0  0  0  0  0  0  0  0  0  0  0  0
  -19.4079   13.4027   24.0632 H   0  0  0  0  0  0  0  0  0  0  0  0
  -21.7365   12.0540   27.1805 N   0  0  0  0  0  0  0  0  0  0  0  0
  -21.3681   11.9033   25.8772 C   0  0  0  0  0  0  0  0  0  0  0  0
  -20.1242   12.4637   25.7429 C   0  0  0  0  0  0  0  0  0  0  0  0
  -19.8255   12.9319   27.0457 C   0  0  0  0  0  0  0  0  0  0  0  0
  -20.8051   12.6832   27.9233 N   0  0  0  0  0  0  0  0  0  0  0  0
  -24.1866   12.0310   26.9250 C   0  0  0  0  0  0  0  0  0  0  0  0
  -22.9907   11.6224   27.7655 C   0  0  0  0  0  0  0  0  0  0  0  0
  -17.7022   11.8818   22.9213 C   0  0  0  0  0  0  0  0  0  0  0  0
  -16.6757   12.9856   23.1944 C   0  0  0  0  0  0  0  0  0  0  0  0
  -15.6589   12.8264   22.0839 C   0  0  0  0  0  0  0  0  0  0  0  0
  -15.5310   11.3199   21.9195 C   0  0  0  0  0  0  0  0  0  0  0  0
  -16.8682   10.7224   22.3674 C   0  0  0  0  0  0  0  0  0  0  0  0
  1  2  1  0  0  0  0
  1  4  1  0  0  0  0
  2  3  2  0  0  0  0
  2 12  1  0  0  0  0
  5  6  1  0  0  0  0
  5  9  1  0  0  0  0
  6  7  2  0  0  0  0
  7  1  1  0  0  0  0
  7  8  1  0  0  0  0
  8  9  2  0  0  0  0
 10 11  1  0  0  0  0
 11  5  1  0  0  0  0
 12 13  1  0  0  0  0
 12 16  1  0  0  0  0
 13 14  1  0  0  0  0
 14 15  1  0  0  0  0
 15 16  1  0  0  0  0
M  END
>  <minimizedAffinity>
-6.26783

$$$$
