
 OpenBabel11261916443D

 18 19  0  0  0  0  0  0  0  0999 V2000
  -15.1242   10.8855   21.0427 C   0  0  0  0  0  0  0  0  0  0  0  0
  -15.3729   10.7484   22.4765 N   0  0  0  0  0  0  0  0  0  0  0  0
  -15.0524   11.9964   23.2051 C   0  0  0  0  0  0  0  0  0  0  0  0
  -16.0721   13.1381   23.0167 C   0  0  0  0  0  0  0  0  0  0  0  0
  -17.4328   12.6776   23.2980 N   0  0  0  0  0  0  0  0  0  0  0  0
  -17.8211   11.4685   22.5646 C   0  0  0  0  0  0  0  0  0  0  0  0
  -16.7701   10.3498   22.7544 C   0  0  0  0  0  0  0  0  0  0  0  0
  -18.2445   13.4367   24.1292 C   0  0  0  0  0  0  0  0  0  0  0  0
  -17.8542   14.4971   24.6227 O   0  0  0  0  0  0  0  0  0  0  0  0
  -19.6373   12.9122   24.4787 C   0  0  0  0  0  0  0  0  0  0  0  0
  -19.5785   12.0728   25.6231 O   0  0  0  0  0  0  0  0  0  0  0  0
  -20.7002   12.0349   26.4082 C   0  0  0  0  0  0  0  0  0  0  0  0
  -21.7788   11.1645   26.2465 C   0  0  0  0  0  0  0  0  0  0  0  0
  -22.9101   11.2820   27.0593 C   0  0  0  0  0  0  0  0  0  0  0  0
  -22.9754   12.2640   28.0518 C   0  0  0  0  0  0  0  0  0  0  0  0
  -24.2082   12.4266   28.8898 C   0  0  0  0  0  0  0  0  0  0  0  0
  -21.8715   13.1002   28.2489 C   0  0  0  0  0  0  0  0  0  0  0  0
  -20.7440   12.9862   27.4297 C   0  0  0  0  0  0  0  0  0  0  0  0
  1  2  1  0  0  0  0
  2  3  1  0  0  0  0
  2  7  1  0  0  0  0
  3  4  1  0  0  0  0
  4  5  1  0  0  0  0
  5  6  1  0  0  0  0
  5  8  1  0  0  0  0
  6  7  1  0  0  0  0
  8  9  2  0  0  0  0
  8 10  1  0  0  0  0
 10 11  1  0  0  0  0
 11 12  1  0  0  0  0
 12 13  1  0  0  0  0
 12 18  2  0  0  0  0
 13 14  2  0  0  0  0
 14 15  1  0  0  0  0
 15 16  1  0  0  0  0
 15 17  2  0  0  0  0
 17 18  1  0  0  0  0
M  END
>  <minimizedAffinity>
-3.94069

$$$$
