
 OpenBabel11261916453D

 18 19  0  0  0  0  0  0  0  0999 V2000
  -19.7815   13.5742   25.8203 N   0  0  0  0  0  0  0  0  0  0  0  0
  -20.1396   12.9549   26.9974 C   0  0  0  0  0  0  0  0  0  0  0  0
  -19.3323   12.6492   27.8674 O   0  0  0  0  0  0  0  0  0  0  0  0
  -20.4240   13.5872   25.0410 H   0  0  0  0  0  0  0  0  0  0  0  0
  -21.5752   12.6367   27.1788 C   0  0  0  0  0  0  0  0  0  0  0  0
  -22.3199   13.0359   28.2915 C   0  0  0  0  0  0  0  0  0  0  0  0
  -23.6617   12.6673   28.3805 C   0  0  0  0  0  0  0  0  0  0  0  0
  -24.2117   11.9113   27.3559 C   0  0  0  0  0  0  0  0  0  0  0  0
  -23.5186   11.5053   26.2716 N   0  0  0  0  0  0  0  0  0  0  0  0
  -22.2123   11.8694   26.2113 C   0  0  0  0  0  0  0  0  0  0  0  0
  -18.3922   13.8535   25.5376 C   0  0  0  0  0  0  0  0  0  0  0  0
  -16.8742   11.9550   22.8130 N   0  0  0  0  0  0  0  0  0  0  0  0
  -17.0410   13.1453   23.4583 C   0  0  0  0  0  0  0  0  0  0  0  0
  -17.9183   12.9076   24.4991 C   0  0  0  0  0  0  0  0  0  0  0  0
  -18.2299   11.5347   24.3709 C   0  0  0  0  0  0  0  0  0  0  0  0
  -17.6109   10.9594   23.3375 N   0  0  0  0  0  0  0  0  0  0  0  0
  -15.2232   12.9292   21.2642 C   0  0  0  0  0  0  0  0  0  0  0  0
  -15.9835   11.6907   21.7000 C   0  0  0  0  0  0  0  0  0  0  0  0
  1  2  1  0  0  0  0
  1  4  1  0  0  0  0
  2  3  2  0  0  0  0
  2  5  1  0  0  0  0
  5  6  1  0  0  0  0
  5 10  2  0  0  0  0
  6  7  2  0  0  0  0
  7  8  1  0  0  0  0
  8  9  2  0  0  0  0
  9 10  1  0  0  0  0
 11  1  1  0  0  0  0
 12 13  1  0  0  0  0
 12 16  1  0  0  0  0
 13 14  2  0  0  0  0
 14 11  1  0  0  0  0
 14 15  1  0  0  0  0
 15 16  2  0  0  0  0
 17 18  1  0  0  0  0
 18 12  1  0  0  0  0
M  END
>  <minimizedAffinity>
-6.17077

$$$$
