
 OpenBabel11261916453D

 15 16  0  0  0  0  0  0  0  0999 V2000
  -18.9892   11.5529   24.9248 N   0  0  0  0  0  0  0  0  0  0  0  0
  -18.2720   12.5140   24.2291 C   0  0  0  0  0  0  0  0  0  0  0  0
  -18.5820   13.7075   24.1679 O   0  0  0  0  0  0  0  0  0  0  0  0
  -18.6685   10.5935   24.9067 H   0  0  0  0  0  0  0  0  0  0  0  0
  -22.1917   11.9297   26.4120 N   0  0  0  0  0  0  0  0  0  0  0  0
  -21.4140   11.3901   25.4314 C   0  0  0  0  0  0  0  0  0  0  0  0
  -20.1296   11.8136   25.6691 C   0  0  0  0  0  0  0  0  0  0  0  0
  -20.2397   12.5873   26.8484 C   0  0  0  0  0  0  0  0  0  0  0  0
  -21.4965   12.6595   27.3052 N   0  0  0  0  0  0  0  0  0  0  0  0
  -24.2120   12.8270   27.4847 C   0  0  0  0  0  0  0  0  0  0  0  0
  -23.6328   11.8082   26.5192 C   0  0  0  0  0  0  0  0  0  0  0  0
  -17.0226   11.9716   23.4997 C   0  0  0  0  0  0  0  0  0  0  0  0
  -17.2975   11.1861   22.1819 C   0  0  0  0  0  0  0  0  0  0  0  0
  -15.9704   11.7429   21.6454 C   0  0  0  0  0  0  0  0  0  0  0  0
  -16.1489   12.9164   22.6302 C   0  0  0  0  0  0  0  0  0  0  0  0
  1  2  1  0  0  0  0
  1  4  1  0  0  0  0
  2  3  2  0  0  0  0
  2 12  1  0  0  0  0
  5  6  1  0  0  0  0
  5  9  1  0  0  0  0
  6  7  2  0  0  0  0
  7  1  1  0  0  0  0
  7  8  1  0  0  0  0
  8  9  2  0  0  0  0
 10 11  1  0  0  0  0
 11  5  1  0  0  0  0
 12 13  1  0  0  0  0
 12 15  1  0  0  0  0
 13 14  1  0  0  0  0
 14 15  1  0  0  0  0
M  END
>  <minimizedAffinity>
-5.94511

$$$$
