
 OpenBabel11261916453D

 16 17  0  0  0  0  0  0  0  0999 V2000
  -18.2740   15.3975   25.7484 N   0  0  0  0  0  0  0  0  0  0  0  0
  -17.8457   15.8145   24.9232 H   0  0  0  0  0  0  0  0  0  0  0  0
  -17.4617   13.7362   23.5178 F   0  0  0  0  0  0  0  0  0  0  0  0
  -18.2419   13.2485   24.4949 C   0  0  0  0  0  0  0  0  0  0  0  0
  -18.5908   11.8989   24.4156 C   0  0  0  0  0  0  0  0  0  0  0  0
  -19.3728   11.3232   25.4114 C   0  0  0  0  0  0  0  0  0  0  0  0
  -19.7878   12.0993   26.4895 C   0  0  0  0  0  0  0  0  0  0  0  0
  -19.4235   13.4493   26.5666 C   0  0  0  0  0  0  0  0  0  0  0  0
  -18.6704   14.0670   25.5547 C   0  0  0  0  0  0  0  0  0  0  0  0
  -17.4622   15.7370   26.9226 C   0  0  0  0  0  0  0  0  0  0  0  0
  -16.1976   16.4964   26.6032 C   0  0  0  0  0  0  0  0  0  0  0  0
  -15.5642   17.4843   27.3956 C   0  0  0  0  0  0  0  0  0  0  0  0
  -14.4765   17.8868   26.6621 C   0  0  0  0  0  0  0  0  0  0  0  0
  -14.5069   17.1559   25.5121 N   0  0  0  0  0  0  0  0  0  0  0  0
  -15.5378   16.2952   25.4480 N   0  0  0  0  0  0  0  0  0  0  0  0
  -13.8601   17.1935   24.7313 H   0  0  0  0  0  0  0  0  0  0  0  0
  1 10  1  0  0  0  0
  1  2  1  0  0  0  0
  3  4  1  0  0  0  0
  4  5  1  0  0  0  0
  4  9  2  0  0  0  0
  5  6  2  0  0  0  0
  6  7  1  0  0  0  0
  7  8  2  0  0  0  0
  8  9  1  0  0  0  0
  9  1  1  0  0  0  0
 10 11  1  0  0  0  0
 11 12  1  0  0  0  0
 11 15  2  0  0  0  0
 12 13  2  0  0  0  0
 13 14  1  0  0  0  0
 14 15  1  0  0  0  0
 14 16  1  0  0  0  0
M  END
>  <minimizedAffinity>
-6.74459

$$$$
