
 OpenBabel11261916443D

 14 14  0  0  0  0  0  0  0  0999 V2000
  -19.4519   11.4314   24.8884 N   0  0  0  0  0  0  0  0  0  0  0  0
  -18.8258   10.1570   25.2110 C   0  0  0  0  0  0  0  0  0  0  0  0
  -20.6761   11.6829   25.4934 C   0  0  0  0  0  0  0  0  0  0  0  0
  -21.7874   11.2861   24.8203 N   0  0  0  0  0  0  0  0  0  0  0  0
  -23.0032   11.5204   25.3688 C   0  0  0  0  0  0  0  0  0  0  0  0
  -23.1930   12.1271   26.5965 C   0  0  0  0  0  0  0  0  0  0  0  0
  -22.0667   12.5183   27.3006 C   0  0  0  0  0  0  0  0  0  0  0  0
  -20.8078   12.2993   26.7473 C   0  0  0  0  0  0  0  0  0  0  0  0
  -19.7365   12.6452   27.4786 F   0  0  0  0  0  0  0  0  0  0  0  0
  -18.6047   13.7209   24.5484 C   0  0  0  0  0  0  0  0  0  0  0  0
  -18.8500   12.3567   23.9131 C   0  0  1  0  0  0  0  0  0  0  0  0
  -17.5455   11.7720   23.3266 C   0  0  0  0  0  0  0  0  0  0  0  0
  -17.7693   11.2500   22.0167 O   0  0  0  0  0  0  0  0  0  0  0  0
  -18.6346   10.7948   22.0632 H   0  0  0  0  0  0  0  0  0  0  0  0
  1  2  1  0  0  0  0
  1  3  1  0  0  0  0
  3  4  1  0  0  0  0
  3  8  2  0  0  0  0
  4  5  2  0  0  0  0
  5  6  1  0  0  0  0
  6  7  2  0  0  0  0
  7  8  1  0  0  0  0
  8  9  1  0  0  0  0
 11 10  1  1  0  0  0
 11 12  1  0  0  0  0
 11  1  1  0  0  0  0
 12 13  1  0  0  0  0
 13 14  1  0  0  0  0
M  END
>  <minimizedAffinity>
-6.38092

$$$$
