
 OpenBabel11261916433D

 17 18  0  0  0  0  0  0  0  0999 V2000
  -20.6144   11.2678   25.7853 N   0  0  0  0  0  0  0  0  0  0  0  0
  -19.9780   10.8809   26.4822 H   0  0  0  0  0  0  0  0  0  0  0  0
  -21.7753   11.7613   26.3924 C   0  0  0  0  0  0  0  0  0  0  0  0
  -21.7706   12.5230   27.5658 C   0  0  0  0  0  0  0  0  0  0  0  0
  -22.9561   13.0705   28.0766 C   0  0  0  0  0  0  0  0  0  0  0  0
  -24.1660   12.8858   27.4091 C   0  0  0  0  0  0  0  0  0  0  0  0
  -24.1914   12.1608   26.2230 C   0  0  0  0  0  0  0  0  0  0  0  0
  -23.0070   11.6217   25.7250 C   0  0  0  0  0  0  0  0  0  0  0  0
  -23.0535   10.9315   24.5728 F   0  0  0  0  0  0  0  0  0  0  0  0
  -19.9080   12.0466   24.7716 C   0  0  0  0  0  0  0  0  0  0  0  0
  -18.3236   12.2732   27.6357 C   0  0  0  0  0  0  0  0  0  0  0  0
  -18.4338   13.2926   26.5621 C   0  0  0  0  0  0  0  0  0  0  0  0
  -17.8444   14.4850   26.7169 N   0  0  0  0  0  0  0  0  0  0  0  0
  -18.1463   15.1496   25.5928 N   0  0  0  0  0  0  0  0  0  0  0  0
  -18.9063   14.4280   24.7265 C   0  0  0  0  0  0  0  0  0  0  0  0
  -19.1175   13.1970   25.3165 C   0  0  0  0  0  0  0  0  0  0  0  0
  -17.8020   16.0979   25.4870 H   0  0  0  0  0  0  0  0  0  0  0  0
  1  3  1  0  0  0  0
  1  2  1  0  0  0  0
  3  4  1  0  0  0  0
  3  8  2  0  0  0  0
  4  5  2  0  0  0  0
  5  6  1  0  0  0  0
  6  7  2  0  0  0  0
  7  8  1  0  0  0  0
  8  9  1  0  0  0  0
 10  1  1  0  0  0  0
 11 12  1  0  0  0  0
 12 13  2  0  0  0  0
 12 16  1  0  0  0  0
 13 14  1  0  0  0  0
 14 15  1  0  0  0  0
 14 17  1  0  0  0  0
 15 16  2  0  0  0  0
 16 10  1  0  0  0  0
M  END
>  <minimizedAffinity>
-6.71346

$$$$
