
 OpenBabel11261916453D

 17 18  0  0  0  0  0  0  0  0999 V2000
  -19.8929   10.8057   25.0423 C   0  0  0  0  0  0  0  0  0  0  0  0
  -18.7509   11.3468   24.2619 C   0  0  0  0  0  0  0  0  0  0  0  0
  -17.9666   10.6267   23.4863 N   0  0  0  0  0  0  0  0  0  0  0  0
  -17.0360   11.4946   22.9822 C   0  0  0  0  0  0  0  0  0  0  0  0
  -15.9664   11.2391   22.1112 C   0  0  0  0  0  0  0  0  0  0  0  0
  -15.1417   12.3004   21.7237 C   0  0  0  0  0  0  0  0  0  0  0  0
  -15.3718   13.5897   22.2039 C   0  0  0  0  0  0  0  0  0  0  0  0
  -16.4256   13.8603   23.0863 C   0  0  0  0  0  0  0  0  0  0  0  0
  -17.2509   12.7878   23.4514 C   0  0  0  0  0  0  0  0  0  0  0  0
  -18.3637   12.6720   24.2584 N   0  0  0  0  0  0  0  0  0  0  0  0
  -18.9856   13.7514   25.0070 C   0  0  0  0  0  0  0  0  0  0  0  0
  -18.3789   13.9512   26.3911 C   0  0  0  0  0  0  0  0  0  0  0  0
  -18.9849   12.9903   27.3840 C   0  0  0  0  0  0  0  0  0  0  0  0
  -18.3603   12.1230   27.9779 O   0  0  0  0  0  0  0  0  0  0  0  0
  -20.3244   13.1591   27.5811 N   0  0  0  0  0  0  0  0  0  0  0  0
  -20.8727   13.8660   27.1094 H   0  0  0  0  0  0  0  0  0  0  0  0
  -20.7871   12.5455   28.2375 H   0  0  0  0  0  0  0  0  0  0  0  0
  1  2  1  0  0  0  0
  2  3  2  0  0  0  0
  2 10  1  0  0  0  0
  3  4  1  0  0  0  0
  4  5  1  0  0  0  0
  4  9  2  0  0  0  0
  5  6  2  0  0  0  0
  6  7  1  0  0  0  0
  7  8  2  0  0  0  0
  8  9  1  0  0  0  0
  9 10  1  0  0  0  0
 10 11  1  0  0  0  0
 11 12  1  0  0  0  0
 12 13  1  0  0  0  0
 13 14  2  0  0  0  0
 13 15  1  0  0  0  0
 15 16  1  0  0  0  0
 15 17  1  0  0  0  0
M  END
>  <minimizedAffinity>
-5.95039

$$$$
