
 OpenBabel11261916443D

 14 14  0  0  0  0  0  0  0  0999 V2000
  -18.9328   14.9704   25.7087 C   0  0  0  0  0  0  0  0  0  0  0  0
  -18.5922   13.6597   25.0637 C   0  0  0  0  0  0  0  0  0  0  0  0
  -19.2762   12.4867   25.4052 C   0  0  0  0  0  0  0  0  0  0  0  0
  -18.9415   11.2788   24.7963 C   0  0  0  0  0  0  0  0  0  0  0  0
  -19.6047   10.1666   25.1375 F   0  0  0  0  0  0  0  0  0  0  0  0
  -17.9380   11.2067   23.8408 C   0  0  0  0  0  0  0  0  0  0  0  0
  -17.2664   12.3764   23.4870 C   0  0  0  0  0  0  0  0  0  0  0  0
  -17.5755   13.5969   24.1008 C   0  0  0  0  0  0  0  0  0  0  0  0
  -15.9863   12.3092   22.2727 S   0  0  0  0  0  0  0  0  0  0  0  0
  -16.4933   11.6707   21.0811 O   0  0  0  0  0  0  0  0  0  0  0  0
  -15.2932   13.5754   22.2409 O   0  0  0  0  0  0  0  0  0  0  0  0
  -14.9217   11.2142   22.9687 N   0  0  0  0  0  0  0  0  0  0  0  0
  -14.8403   10.3849   22.3800 H   0  0  0  0  0  0  0  0  0  0  0  0
  -14.0306   11.6709   23.1651 H   0  0  0  0  0  0  0  0  0  0  0  0
  1  2  1  0  0  0  0
  2  3  1  0  0  0  0
  2  8  2  0  0  0  0
  3  4  2  0  0  0  0
  4  5  1  0  0  0  0
  4  6  1  0  0  0  0
  6  7  2  0  0  0  0
  7  8  1  0  0  0  0
  7  9  1  0  0  0  0
  9 10  2  0  0  0  0
  9 11  2  0  0  0  0
  9 12  1  0  0  0  0
 12 13  1  0  0  0  0
 12 14  1  0  0  0  0
M  END
>  <minimizedAffinity>
-5.91329

$$$$
