
 OpenBabel11261916453D

 15 16  0  0  0  0  0  0  0  0999 V2000
  -20.5300   12.6888   26.6349 C   0  0  0  0  0  0  0  0  0  0  0  0
  -20.1385   13.9660   26.8414 C   0  0  0  0  0  0  0  0  0  0  0  0
  -18.8901   14.4531   26.1823 C   0  0  0  0  0  0  0  0  0  0  0  0
  -18.4841   15.8824   26.4462 C   0  0  0  0  0  0  0  0  0  0  0  0
  -18.1321   13.7471   25.4034 N   0  0  0  0  0  0  0  0  0  0  0  0
  -18.5201   12.4609   25.1897 C   0  0  0  0  0  0  0  0  0  0  0  0
  -17.9259   11.5534   24.4460 N   0  0  0  0  0  0  0  0  0  0  0  0
  -18.7194   10.4655   24.5799 C   0  0  0  0  0  0  0  0  0  0  0  0
  -19.7822   10.6106   25.3634 N   0  0  0  0  0  0  0  0  0  0  0  0
  -19.6838   11.9130   25.7717 N   0  0  0  0  0  0  0  0  0  0  0  0
  -21.7131   12.1298   27.2405 N   0  0  0  0  0  0  0  0  0  0  0  0
  -23.3066   13.3303   28.7123 C   0  0  0  0  0  0  0  0  0  0  0  0
  -22.0793   12.4316   28.6394 C   0  0  0  0  0  0  0  0  0  0  0  0
  -22.4946   11.0848   26.5255 C   0  0  0  0  0  0  0  0  0  0  0  0
  -23.3150   11.5091   25.3181 C   0  0  0  0  0  0  0  0  0  0  0  0
  1  2  2  0  0  0  0
  1 10  1  0  0  0  0
  2  3  1  0  0  0  0
  3  4  1  0  0  0  0
  3  5  2  0  0  0  0
  5  6  1  0  0  0  0
  6  7  2  0  0  0  0
  6 10  1  0  0  0  0
  7  8  1  0  0  0  0
  8  9  2  0  0  0  0
  9 10  1  0  0  0  0
 11 14  1  0  0  0  0
 11  1  1  0  0  0  0
 12 13  1  0  0  0  0
 13 11  1  0  0  0  0
 14 15  1  0  0  0  0
M  END
>  <minimizedAffinity>
-5.76638

$$$$
