
 OpenBabel11261916443D

 11 11  0  0  0  0  0  0  0  0999 V2000
  -16.8664   12.1190   23.0084 C   0  0  0  0  0  0  0  0  0  0  0  0
  -16.2439   13.3873   23.0699 C   0  0  0  0  0  0  0  0  0  0  0  0
  -15.3087   13.5630   22.1324 N   0  0  0  0  0  0  0  0  0  0  0  0
  -15.3636   12.4267   21.4210 N   0  0  0  0  0  0  0  0  0  0  0  0
  -16.2875   11.5429   21.8916 C   0  0  0  0  0  0  0  0  0  0  0  0
  -14.7466   12.3280   20.6211 H   0  0  0  0  0  0  0  0  0  0  0  0
  -19.8674   11.6370   25.2523 C   0  0  0  0  0  0  0  0  0  0  0  0
  -18.8615   12.3194   24.4536 N   0  0  0  0  0  0  0  0  0  0  0  0
  -18.7169   13.7529   24.6467 C   0  0  0  0  0  0  0  0  0  0  0  0
  -17.9236   11.5038   23.8046 C   0  0  0  0  0  0  0  0  0  0  0  0
  -17.9663   10.2814   23.9191 O   0  0  0  0  0  0  0  0  0  0  0  0
  1  2  1  0  0  0  0
  1  5  2  0  0  0  0
  2  3  2  0  0  0  0
  3  4  1  0  0  0  0
  4  5  1  0  0  0  0
  4  6  1  0  0  0  0
  7  8  1  0  0  0  0
  8  9  1  0  0  0  0
  8 10  1  0  0  0  0
 10 11  2  0  0  0  0
 10  1  1  0  0  0  0
M  END
>  <minimizedAffinity>
-4.51744

$$$$
