
 OpenBabel11261916443D

 11 11  0  0  0  0  0  0  0  0999 V2000
  -17.5902   11.6036   23.3888 C   0  0  0  0  0  0  0  0  0  0  0  0
  -17.4730   10.5604   22.7590 O   0  0  0  0  0  0  0  0  0  0  0  0
  -18.3994   11.7506   24.4939 N   0  0  0  0  0  0  0  0  0  0  0  0
  -18.3987   12.9290   25.3610 C   0  0  0  0  0  0  0  0  0  0  0  0
  -19.8295   13.2668   25.7826 C   0  0  0  0  0  0  0  0  0  0  0  0
  -20.4727   12.1328   26.3861 O   0  0  0  0  0  0  0  0  0  0  0  0
  -20.5237   11.0244   25.4705 C   0  0  0  0  0  0  0  0  0  0  0  0
  -19.1194   10.6033   25.0336 C   0  0  0  0  0  0  0  0  0  0  0  0
  -16.9271   12.7516   23.0985 O   0  0  0  0  0  0  0  0  0  0  0  0
  -14.9689   13.8849   22.3377 C   0  0  0  0  0  0  0  0  0  0  0  0
  -15.7758   12.6017   22.2543 C   0  0  0  0  0  0  0  0  0  0  0  0
  1  2  2  0  0  0  0
  1  3  1  0  0  0  0
  3  4  1  0  0  0  0
  3  8  1  0  0  0  0
  4  5  1  0  0  0  0
  5  6  1  0  0  0  0
  6  7  1  0  0  0  0
  7  8  1  0  0  0  0
  9  1  1  0  0  0  0
 10 11  1  0  0  0  0
 11  9  1  0  0  0  0
M  END
>  <minimizedAffinity>
-5.01577

$$$$
