
 OpenBabel11261916433D

 10 10  0  0  0  0  0  0  0  0999 V2000
  -19.6610   13.2865   26.6756 Br  0  0  0  0  0  0  0  0  0  0  0  0
  -18.9131   12.2287   25.3345 C   0  0  0  0  0  0  0  0  0  0  0  0
  -18.3243   12.6309   24.1664 C   0  0  0  0  0  0  0  0  0  0  0  0
  -17.9409   11.4782   23.5393 N   0  0  0  0  0  0  0  0  0  0  0  0
  -18.2529   10.3613   24.2325 N   0  0  0  0  0  0  0  0  0  0  0  0
  -18.8483   10.8304   25.3357 C   0  0  0  0  0  0  0  0  0  0  0  0
  -17.2688   11.3710   22.2576 C   0  0  0  0  0  0  0  0  0  0  0  0
  -15.7724   11.6405   22.3553 C   0  0  0  0  0  0  0  0  0  0  0  0
  -15.0173   10.4410   22.1915 O   0  0  0  0  0  0  0  0  0  0  0  0
  -15.0678    9.9618   23.0402 H   0  0  0  0  0  0  0  0  0  0  0  0
  1  2  1  0  0  0  0
  2  3  2  0  0  0  0
  2  6  1  0  0  0  0
  3  4  1  0  0  0  0
  4  7  1  0  0  0  0
  4  5  1  0  0  0  0
  5  6  2  0  0  0  0
  7  8  1  0  0  0  0
  8  9  1  0  0  0  0
  9 10  1  0  0  0  0
M  END
>  <minimizedAffinity>
-5.26847

$$$$
