
 OpenBabel11261916453D

 12 12  0  0  0  0  0  0  0  0999 V2000
  -18.5336   13.2303   25.3817 N   0  0  0  0  0  0  0  0  0  0  0  0
  -18.8672   12.3639   24.3630 C   0  0  0  0  0  0  0  0  0  0  0  0
  -20.0060   11.9479   24.1710 O   0  0  0  0  0  0  0  0  0  0  0  0
  -17.5539   13.4745   25.4861 H   0  0  0  0  0  0  0  0  0  0  0  0
  -17.7407   11.9778   23.5269 C   0  0  0  0  0  0  0  0  0  0  0  0
  -16.7745   12.8033   22.9922 C   0  0  0  0  0  0  0  0  0  0  0  0
  -15.9615   11.9605   22.3009 N   0  0  0  0  0  0  0  0  0  0  0  0
  -16.3826   10.6893   22.3889 N   0  0  0  0  0  0  0  0  0  0  0  0
  -17.4760   10.6826   23.1411 N   0  0  0  0  0  0  0  0  0  0  0  0
  -15.1270   12.1632   21.7610 H   0  0  0  0  0  0  0  0  0  0  0  0
  -19.5675   12.7584   27.5534 C   0  0  0  0  0  0  0  0  0  0  0  0
  -19.4989   13.6866   26.3543 C   0  0  0  0  0  0  0  0  0  0  0  0
  1  2  1  0  0  0  0
  1  4  1  0  0  0  0
  2  3  2  0  0  0  0
  2  5  1  0  0  0  0
  5  6  2  0  0  0  0
  5  9  1  0  0  0  0
  6  7  1  0  0  0  0
  7  8  1  0  0  0  0
  7 10  1  0  0  0  0
  8  9  2  0  0  0  0
 11 12  1  0  0  0  0
 12  1  1  0  0  0  0
M  END
>  <minimizedAffinity>
-5.25666

$$$$
