
 OpenBabel11261916453D

 18 19  0  0  0  0  0  0  0  0999 V2000
  -15.7707   13.0661   22.2137 N   0  0  0  0  0  0  0  0  0  0  0  0
  -16.3261   11.9017   22.6262 C   0  0  0  0  0  0  0  0  0  0  0  0
  -15.8456   10.8446   22.2329 O   0  0  0  0  0  0  0  0  0  0  0  0
  -17.4005   12.0013   23.4732 N   0  0  0  0  0  0  0  0  0  0  0  0
  -17.8203   13.2347   24.1610 C   0  0  0  0  0  0  0  0  0  0  0  0
  -19.3350   13.2584   24.4585 C   0  0  0  0  0  0  0  0  0  0  0  0
  -19.7147   12.0189   25.1498 N   0  0  0  0  0  0  0  0  0  0  0  0
  -19.3858   10.7941   24.3954 C   0  0  0  0  0  0  0  0  0  0  0  0
  -17.8793   10.7623   24.1076 C   0  0  0  0  0  0  0  0  0  0  0  0
  -15.0442   12.9160   21.5239 H   0  0  0  0  0  0  0  0  0  0  0  0
  -16.3914   13.8267   21.9889 H   0  0  0  0  0  0  0  0  0  0  0  0
  -20.6933   11.9886   26.1242 C   0  0  0  0  0  0  0  0  0  0  0  0
  -21.7989   11.1256   26.0635 C   0  0  0  0  0  0  0  0  0  0  0  0
  -22.8136   11.1715   27.0258 C   0  0  0  0  0  0  0  0  0  0  0  0
  -22.7354   12.0913   28.0605 C   0  0  0  0  0  0  0  0  0  0  0  0
  -23.7160   12.1509   28.9705 F   0  0  0  0  0  0  0  0  0  0  0  0
  -21.6576   12.9558   28.1558 C   0  0  0  0  0  0  0  0  0  0  0  0
  -20.6466   12.8987   27.1954 C   0  0  0  0  0  0  0  0  0  0  0  0
  1  2  1  0  0  0  0
  1 10  1  0  0  0  0
  1 11  1  0  0  0  0
  2  3  2  0  0  0  0
  2  4  1  0  0  0  0
  4  5  1  0  0  0  0
  4  9  1  0  0  0  0
  5  6  1  0  0  0  0
  6  7  1  0  0  0  0
  7  8  1  0  0  0  0
  7 12  1  0  0  0  0
  8  9  1  0  0  0  0
 12 13  1  0  0  0  0
 12 18  2  0  0  0  0
 13 14  2  0  0  0  0
 14 15  1  0  0  0  0
 15 16  1  0  0  0  0
 15 17  2  0  0  0  0
 17 18  1  0  0  0  0
M  END
>  <minimizedAffinity>
-6.80467

$$$$
