
 OpenBabel11261916463D

 13 14  0  0  0  0  0  0  0  0999 V2000
  -19.1629   11.6749   25.8099 C   0  0  0  0  0  0  0  0  0  0  0  0
  -18.5228   12.3354   26.7581 N   0  0  0  0  0  0  0  0  0  0  0  0
  -19.4538   12.8573   27.6267 N   0  0  0  0  0  0  0  0  0  0  0  0
  -20.6445   12.5077   27.1945 C   0  0  0  0  0  0  0  0  0  0  0  0
  -21.9582   12.7688   27.6720 C   0  0  0  0  0  0  0  0  0  0  0  0
  -23.0194   12.2692   27.0080 C   0  0  0  0  0  0  0  0  0  0  0  0
  -22.8538   11.4642   25.8066 C   0  0  0  0  0  0  0  0  0  0  0  0
  -21.6121   11.2169   25.3536 C   0  0  0  0  0  0  0  0  0  0  0  0
  -20.5194   11.7401   26.0443 N   0  0  0  0  0  0  0  0  0  0  0  0
  -18.5382   10.9802   24.6514 C   0  0  0  0  0  0  0  0  0  0  0  0
  -17.2704   11.2494   22.5976 C   0  0  0  0  0  0  0  0  0  0  0  0
  -18.2153   11.8696   23.5246 N   0  0  0  0  0  0  0  0  0  0  0  0
  -19.0794   12.0589   23.0165 H   0  0  0  0  0  0  0  0  0  0  0  0
  1  2  2  0  0  0  0
  1  9  1  0  0  0  0
  2  3  1  0  0  0  0
  3  4  2  0  0  0  0
  4  5  1  0  0  0  0
  4  9  1  0  0  0  0
  5  6  2  0  0  0  0
  6  7  1  0  0  0  0
  7  8  2  0  0  0  0
  8  9  1  0  0  0  0
 10  1  1  0  0  0  0
 11 12  1  0  0  0  0
 12 10  1  0  0  0  0
 12 13  1  0  0  0  0
M  END
>  <minimizedAffinity>
-6.20133

$$$$
