
 OpenBabel11261916453D

 14 14  0  0  0  0  0  0  0  0999 V2000
  -18.9448   16.6028   26.7741 Br  0  0  0  0  0  0  0  0  0  0  0  0
  -18.7664   14.9315   25.9063 C   0  0  0  0  0  0  0  0  0  0  0  0
  -19.4339   13.8163   26.4135 C   0  0  0  0  0  0  0  0  0  0  0  0
  -19.3038   12.5760   25.7813 C   0  0  0  0  0  0  0  0  0  0  0  0
  -18.4699   12.4470   24.6523 C   0  0  0  0  0  0  0  0  0  0  0  0
  -17.8206   13.5888   24.1486 C   0  0  0  0  0  0  0  0  0  0  0  0
  -17.9734   14.8283   24.7694 C   0  0  0  0  0  0  0  0  0  0  0  0
  -19.9473   11.4292   26.1789 O   0  0  0  0  0  0  0  0  0  0  0  0
  -21.3040   11.2640   25.7691 C   0  0  0  0  0  0  0  0  0  0  0  0
  -18.2702   11.1210   23.9445 C   0  0  0  0  0  0  0  0  0  0  0  0
  -17.2539   11.1303   22.8230 C   0  0  0  0  0  0  0  0  0  0  0  0
  -17.7762   11.2407   21.5818 O   0  0  0  0  0  0  0  0  0  0  0  0
  -16.0421   11.1010   23.0100 O   0  0  0  0  0  0  0  0  0  0  0  0
  -18.7555   11.2172   21.6040 H   0  0  0  0  0  0  0  0  0  0  0  0
  1  2  1  0  0  0  0
  2  3  2  0  0  0  0
  2  7  1  0  0  0  0
  3  4  1  0  0  0  0
  4  8  1  0  0  0  0
  4  5  2  0  0  0  0
  5 10  1  0  0  0  0
  5  6  1  0  0  0  0
  6  7  2  0  0  0  0
  8  9  1  0  0  0  0
 10 11  1  0  0  0  0
 11 12  1  0  0  0  0
 11 13  2  0  0  0  0
 12 14  1  0  0  0  0
M  END
>  <minimizedAffinity>
-5.60823

$$$$
