
 OpenBabel11261916453D

 13 13  0  0  0  0  0  0  0  0999 V2000
  -20.5117   12.7586   26.7436 C   0  0  0  0  0  0  0  0  0  0  0  0
  -21.8090   12.8847   27.2713 C   0  0  0  0  0  0  0  0  0  0  0  0
  -22.8518   12.0297   26.8952 C   0  0  0  0  0  0  0  0  0  0  0  0
  -22.6180   10.9933   26.0024 C   0  0  0  0  0  0  0  0  0  0  0  0
  -21.3387   10.8090   25.4922 C   0  0  0  0  0  0  0  0  0  0  0  0
  -20.2946   11.6746   25.8681 C   0  0  0  0  0  0  0  0  0  0  0  0
  -18.6907   11.3502   25.1449 S   0  0  0  0  0  0  0  0  0  0  0  0
  -17.6928   11.7807   26.1073 O   0  0  0  0  0  0  0  0  0  0  0  0
  -18.6793    9.9854   24.6482 O   0  0  0  0  0  0  0  0  0  0  0  0
  -18.6251   12.4603   23.7670 C   0  0  0  0  0  0  0  0  0  0  0  0
  -19.1978   14.8524   26.5052 C   0  0  0  0  0  0  0  0  0  0  0  0
  -19.4662   13.5861   27.1680 N   0  0  0  0  0  0  0  0  0  0  0  0
  -18.6061   13.0512   27.3552 H   0  0  0  0  0  0  0  0  0  0  0  0
  1  2  1  0  0  0  0
  1  6  2  0  0  0  0
  2  3  2  0  0  0  0
  3  4  1  0  0  0  0
  4  5  2  0  0  0  0
  5  6  1  0  0  0  0
  6  7  1  0  0  0  0
  7  8  2  0  0  0  0
  7  9  2  0  0  0  0
  7 10  1  0  0  0  0
 11 12  1  0  0  0  0
 12  1  1  0  0  0  0
 12 13  1  0  0  0  0
M  END
>  <minimizedAffinity>
-4.89986

$$$$
