
 OpenBabel11261916453D

 19 20  0  0  0  0  0  0  0  0999 V2000
  -17.7875   14.4412   26.1709 C   0  0  0  0  0  0  0  0  0  0  0  0
  -18.1720   14.1949   24.8515 C   0  0  0  0  0  0  0  0  0  0  0  0
  -19.0262   13.1193   24.5681 C   0  0  0  0  0  0  0  0  0  0  0  0
  -19.4559   12.2649   25.5920 C   0  0  0  0  0  0  0  0  0  0  0  0
  -18.9231   12.4277   26.8776 C   0  0  0  0  0  0  0  0  0  0  0  0
  -18.1054   13.5202   27.1683 C   0  0  0  0  0  0  0  0  0  0  0  0
  -17.9016   16.8373   26.5789 C   0  0  0  0  0  0  0  0  0  0  0  0
  -19.1127   16.9511   26.6951 O   0  0  0  0  0  0  0  0  0  0  0  0
  -17.1781   15.6758   26.4598 N   0  0  0  0  0  0  0  0  0  0  0  0
  -16.2415   15.8401   26.1185 H   0  0  0  0  0  0  0  0  0  0  0  0
  -15.6951   17.5886   26.7433 C   0  0  0  0  0  0  0  0  0  0  0  0
  -17.0528   17.8878   26.4120 O   0  0  0  0  0  0  0  0  0  0  0  0
  -20.5624   11.2699   25.3505 C   0  0  0  0  0  0  0  0  0  0  0  0
  -21.8438   11.5017   26.1017 C   0  0  0  0  0  0  0  0  0  0  0  0
  -21.8427   11.6408   27.4922 C   0  0  0  0  0  0  0  0  0  0  0  0
  -23.0354   11.9437   28.1303 C   0  0  0  0  0  0  0  0  0  0  0  0
  -24.2123   12.1038   27.4886 N   0  0  0  0  0  0  0  0  0  0  0  0
  -24.1955   11.9450   26.1484 C   0  0  0  0  0  0  0  0  0  0  0  0
  -23.0559   11.6441   25.4202 C   0  0  0  0  0  0  0  0  0  0  0  0
  1  2  1  0  0  0  0
  1  6  2  0  0  0  0
  2  3  2  0  0  0  0
  3  4  1  0  0  0  0
  4 13  1  0  0  0  0
  4  5  2  0  0  0  0
  5  6  1  0  0  0  0
  7  8  2  0  0  0  0
  7  9  1  0  0  0  0
  9  1  1  0  0  0  0
  9 10  1  0  0  0  0
 11 12  1  0  0  0  0
 12  7  1  0  0  0  0
 13 14  1  0  0  0  0
 14 15  1  0  0  0  0
 14 19  2  0  0  0  0
 15 16  2  0  0  0  0
 16 17  1  0  0  0  0
 17 18  2  0  0  0  0
 18 19  1  0  0  0  0
M  END
>  <minimizedAffinity>
-7.89017

$$$$
