
 OpenBabel11261916443D

 12 12  0  0  0  0  0  0  0  0999 V2000
  -21.1528   12.4574   27.6833 C   0  0  0  0  0  0  0  0  0  0  0  0
  -22.0157   11.9908   26.5726 C   0  0  0  0  0  0  0  0  0  0  0  0
  -23.4160   12.1500   26.4530 C   0  0  0  0  0  0  0  0  0  0  0  0
  -23.9043   11.5965   25.3411 N   0  0  0  0  0  0  0  0  0  0  0  0
  -22.8230   11.0709   24.7462 N   0  0  0  0  0  0  0  0  0  0  0  0
  -21.6654   11.2905   25.4357 C   0  0  0  0  0  0  0  0  0  0  0  0
  -22.9514   10.5711   23.8717 H   0  0  0  0  0  0  0  0  0  0  0  0
  -18.2007   14.4466   26.4430 C   0  0  0  0  0  0  0  0  0  0  0  0
  -18.9380   13.2869   27.0544 C   0  0  0  0  0  0  0  0  0  0  0  0
  -18.3744   12.2551   27.3991 O   0  0  0  0  0  0  0  0  0  0  0  0
  -20.2893   13.5021   27.1897 N   0  0  0  0  0  0  0  0  0  0  0  0
  -20.7134   14.2901   26.7184 H   0  0  0  0  0  0  0  0  0  0  0  0
  1  2  1  0  0  0  0
  2  3  1  0  0  0  0
  2  6  2  0  0  0  0
  3  4  2  0  0  0  0
  4  5  1  0  0  0  0
  5  6  1  0  0  0  0
  5  7  1  0  0  0  0
  8  9  1  0  0  0  0
  9 10  2  0  0  0  0
  9 11  1  0  0  0  0
 11  1  1  0  0  0  0
 11 12  1  0  0  0  0
M  END
>  <minimizedAffinity>
-5.83568

$$$$
