
 OpenBabel11261916453D

 12 12  0  0  0  0  0  0  0  0999 V2000
  -17.8335   10.0090   23.8079 O   0  0  0  0  0  0  0  0  0  0  0  0
  -18.0442   11.1586   24.1845 C   0  0  0  0  0  0  0  0  0  0  0  0
  -17.5966   12.2990   23.5188 N   0  0  0  0  0  0  0  0  0  0  0  0
  -17.9099   13.5749   23.9540 C   0  0  0  0  0  0  0  0  0  0  0  0
  -18.6289   13.7680   25.0672 C   0  0  0  0  0  0  0  0  0  0  0  0
  -19.0765   12.6354   25.8414 C   0  0  0  0  0  0  0  0  0  0  0  0
  -20.0102   12.9782   27.4207 Br  0  0  0  0  0  0  0  0  0  0  0  0
  -18.8150   11.3878   25.4321 C   0  0  0  0  0  0  0  0  0  0  0  0
  -16.7439   12.1284   22.3367 C   0  0  0  0  0  0  0  0  0  0  0  0
  -15.2921   11.7983   22.6861 C   0  0  0  0  0  0  0  0  0  0  0  0
  -14.9827   10.4465   22.3517 O   0  0  0  0  0  0  0  0  0  0  0  0
  -15.4644    9.8911   22.9900 H   0  0  0  0  0  0  0  0  0  0  0  0
  1  2  2  0  0  0  0
  2  3  1  0  0  0  0
  2  8  1  0  0  0  0
  3  9  1  0  0  0  0
  3  4  1  0  0  0  0
  4  5  2  0  0  0  0
  5  6  1  0  0  0  0
  6  7  1  0  0  0  0
  6  8  2  0  0  0  0
  9 10  1  0  0  0  0
 10 11  1  0  0  0  0
 11 12  1  0  0  0  0
M  END
>  <minimizedAffinity>
-5.65881

$$$$
