
 OpenBabel11261916443D

 16 17  0  0  0  0  0  0  0  0999 V2000
  -19.6036   11.3037   24.9498 C   0  0  0  0  0  0  0  0  0  0  0  0
  -18.9581   10.3087   25.2673 O   0  0  0  0  0  0  0  0  0  0  0  0
  -19.1858   12.2805   24.0643 N   0  0  0  0  0  0  0  0  0  0  0  0
  -19.8224   13.0518   23.8925 H   0  0  0  0  0  0  0  0  0  0  0  0
  -23.5940   12.6785   27.7822 C   0  0  0  0  0  0  0  0  0  0  0  0
  -22.6096   12.1855   26.8030 C   0  0  0  0  0  0  0  0  0  0  0  0
  -21.2408   12.2092   26.7279 C   0  0  0  0  0  0  0  0  0  0  0  0
  -20.9358   11.5508   25.5092 C   0  0  0  0  0  0  0  0  0  0  0  0
  -22.0620   11.1544   24.8875 N   0  0  0  0  0  0  0  0  0  0  0  0
  -23.1056   11.5561   25.7047 O   0  0  0  0  0  0  0  0  0  0  0  0
  -17.9717   12.2673   23.4078 C   0  0  0  0  0  0  0  0  0  0  0  0
  -17.3418   11.2645   22.6375 C   0  0  0  0  0  0  0  0  0  0  0  0
  -16.1528   11.6535   22.1662 N   0  0  0  0  0  0  0  0  0  0  0  0
  -16.0225   12.9054   22.6364 N   0  0  0  0  0  0  0  0  0  0  0  0
  -14.8383   13.6688   22.3246 C   0  0  0  0  0  0  0  0  0  0  0  0
  -17.0871   13.3207   23.3875 C   0  0  0  0  0  0  0  0  0  0  0  0
  1  2  2  0  0  0  0
  1  3  1  0  0  0  0
  3 11  1  0  0  0  0
  3  4  1  0  0  0  0
  5  6  1  0  0  0  0
  6  7  2  0  0  0  0
  6 10  1  0  0  0  0
  7  8  1  0  0  0  0
  8  9  2  0  0  0  0
  8  1  1  0  0  0  0
  9 10  1  0  0  0  0
 11 12  1  0  0  0  0
 11 16  2  0  0  0  0
 12 13  2  0  0  0  0
 13 14  1  0  0  0  0
 14 15  1  0  0  0  0
 14 16  1  0  0  0  0
M  END
>  <minimizedAffinity>
-7.03091

$$$$
