
 OpenBabel11261916433D

 18 18  0  0  0  0  0  0  0  0999 V2000
  -19.6321   11.2174   25.4511 C   0  0  0  0  0  0  0  0  0  0  0  0
  -20.9491   10.7656   25.2753 C   0  0  0  0  0  0  0  0  0  0  0  0
  -21.9780   11.2633   26.0745 C   0  0  0  0  0  0  0  0  0  0  0  0
  -21.6884   12.2121   27.0584 C   0  0  0  0  0  0  0  0  0  0  0  0
  -20.3789   12.6560   27.2596 C   0  0  0  0  0  0  0  0  0  0  0  0
  -19.3535   12.1549   26.4578 C   0  0  0  0  0  0  0  0  0  0  0  0
  -23.0083   12.9338   27.9869 S   0  0  0  0  0  0  0  0  0  0  0  0
  -22.5306   14.1292   28.6417 O   0  0  0  0  0  0  0  0  0  0  0  0
  -24.2118   12.9183   27.1876 O   0  0  0  0  0  0  0  0  0  0  0  0
  -23.2367   11.7984   29.1991 N   0  0  0  0  0  0  0  0  0  0  0  0
  -23.0328   12.2156   30.1082 H   0  0  0  0  0  0  0  0  0  0  0  0
  -24.1722   11.3992   29.1277 H   0  0  0  0  0  0  0  0  0  0  0  0
  -18.5559   10.8104   24.4798 C   0  0  0  0  0  0  0  0  0  0  0  0
  -16.3771   13.2661   22.6220 C   0  0  0  0  0  0  0  0  0  0  0  0
  -16.9232   11.9199   23.0119 C   0  0  0  0  0  0  0  0  0  0  0  0
  -16.5189   10.8694   22.5284 O   0  0  0  0  0  0  0  0  0  0  0  0
  -17.9071   11.9939   23.9648 N   0  0  0  0  0  0  0  0  0  0  0  0
  -18.2002   12.8993   24.3119 H   0  0  0  0  0  0  0  0  0  0  0  0
  1  2  1  0  0  0  0
  1  6  2  0  0  0  0
  2  3  2  0  0  0  0
  3  4  1  0  0  0  0
  4  5  2  0  0  0  0
  4  7  1  0  0  0  0
  5  6  1  0  0  0  0
  7  8  2  0  0  0  0
  7  9  2  0  0  0  0
  7 10  1  0  0  0  0
 10 11  1  0  0  0  0
 10 12  1  0  0  0  0
 13  1  1  0  0  0  0
 14 15  1  0  0  0  0
 15 16  2  0  0  0  0
 15 17  1  0  0  0  0
 17 13  1  0  0  0  0
 17 18  1  0  0  0  0
M  END
>  <minimizedAffinity>
-6.51205

$$$$
