F275
     RDKit          3D

 20 20  0  0  0  0  0  0  0  0999 V2000
  -20.5402   16.7118   26.9595 C   0  0  0  0  0  0  0  0  0  0  0  0
  -19.6587   15.5135   27.1536 C   0  0  0  0  0  0  0  0  0  0  0  0
  -18.6988   15.5153   28.1762 C   0  0  0  0  0  0  0  0  0  0  0  0
  -17.8714   14.4052   28.3670 C   0  0  0  0  0  0  0  0  0  0  0  0
  -16.9456   14.4137   29.3577 F   0  0  0  0  0  0  0  0  0  0  0  0
  -17.9972   13.2862   27.5394 C   0  0  0  0  0  0  0  0  0  0  0  0
  -18.9528   13.2729   26.5134 C   0  0  0  0  0  0  0  0  0  0  0  0
  -19.7812   14.3878   26.3227 C   0  0  0  0  0  0  0  0  0  0  0  0
  -19.1242   11.8704   25.4625 S   0  0  0  0  0  0  0  0  0  0  0  0
  -18.4367   12.1409   24.1540 O   0  0  0  0  0  0  0  0  0  0  0  0
  -18.4978   10.6620   26.1008 O   0  0  0  0  0  0  0  0  0  0  0  0
  -20.8023   11.5551   25.1897 N   0  0  0  0  0  0  0  0  0  0  0  0
  -21.1281   16.8959   27.8833 H   0  0  0  0  0  0  0  0  0  0  0  0
  -21.2478   16.5658   26.1156 H   0  0  0  0  0  0  0  0  0  0  0  0
  -19.9150   17.6037   26.7435 H   0  0  0  0  0  0  0  0  0  0  0  0
  -18.5930   16.3771   28.8241 H   0  0  0  0  0  0  0  0  0  0  0  0
  -17.3500   12.4341   27.7010 H   0  0  0  0  0  0  0  0  0  0  0  0
  -20.5177   14.3770   25.5285 H   0  0  0  0  0  0  0  0  0  0  0  0
  -20.8596   10.6911   24.6055 H   0  0  0  0  0  0  0  0  0  0  0  0
  -21.1712   12.3378   24.6046 H   0  0  0  0  0  0  0  0  0  0  0  0
  1  2  1  0
  2  3  2  0
  3  4  1  0
  4  5  1  0
  4  6  2  0
  6  7  1  0
  7  8  2  0
  7  9  1  0
  9 10  2  0
  9 11  2  0
  9 12  1  0
  2  8  1  0
  1 13  1  0
  1 14  1  0
  1 15  1  0
  3 16  1  0
  6 17  1  0
  8 18  1  0
 12 19  1  0
 12 20  1  0
M  END
>  <CHROM.1>  (1) 
-100.96633324,-177.14406731,1.53531285,-0.81699992,0.73858073

>  <Name>  (1) 
F275

>  <RI>  (1) 
1.28987e+07

>  <Rbt.Current_Directory>  (1) 
/data/out

>  <Rbt.Executable>  (1) 
rbdock ($Id: //depot/dev/client3/rdock/2013.1/src/exe/rbdock.cxx#4 $)

>  <Rbt.Library>  (1) 
libRbt.so (2013.1, Build901 2013/11/27)

>  <Rbt.Parameter_File>  (1) 
/python_libraries/phenodiscovery/docking/templates/RDOCK_TETHER.conf

>  <Rbt.Receptor>  (1) 
/data/out/rdock-opt/grid/rdock-grid.prm

>  <SCORE>  (1) 
-5.70415

>  <SCORE.INTER>  (1) 
-5.73059

>  <SCORE.INTER.CONST>  (1) 
1

>  <SCORE.INTER.POLAR>  (1) 
-0.62913

>  <SCORE.INTER.REPUL>  (1) 
0.000574806

>  <SCORE.INTER.ROT>  (1) 
2

>  <SCORE.INTER.VDW>  (1) 
-10.9944

>  <SCORE.INTER.norm>  (1) 
-0.477549

>  <SCORE.INTRA>  (1) 
0.0264364

>  <SCORE.INTRA.DIHEDRAL>  (1) 
0.0485649

>  <SCORE.INTRA.DIHEDRAL.0>  (1) 
1.22462

>  <SCORE.INTRA.POLAR>  (1) 
0

>  <SCORE.INTRA.POLAR.0>  (1) 
0

>  <SCORE.INTRA.REPUL>  (1) 
0

>  <SCORE.INTRA.REPUL.0>  (1) 
0

>  <SCORE.INTRA.VDW>  (1) 
0.00215393

>  <SCORE.INTRA.VDW.0>  (1) 
-0.864008

>  <SCORE.INTRA.norm>  (1) 
0.00220303

>  <SCORE.RESTR>  (1) 
0

>  <SCORE.RESTR.CAVITY>  (1) 
0

>  <SCORE.RESTR.norm>  (1) 
0

>  <SCORE.SYSTEM>  (1) 
0

>  <SCORE.SYSTEM.CONST>  (1) 
0

>  <SCORE.SYSTEM.DIHEDRAL>  (1) 
0

>  <SCORE.SYSTEM.norm>  (1) 
0

>  <SCORE.heavy>  (1) 
12

>  <SCORE.norm>  (1) 
-0.475346

>  <TETHERED ATOMS>  (1) 
2,8,7,6,3,4,9,10

>  <skeledock_score>  (1) 
42

$$$$
