F618
     RDKit          3D

 26 26  0  0  0  0  0  0  0  0999 V2000
  -18.2049   14.9822   25.9694 C   0  0  0  0  0  0  0  0  0  0  0  0
  -19.1103   13.7417   25.9596 C   0  0  0  0  0  0  0  0  0  0  0  0
  -18.3089   12.4337   26.0880 C   0  0  0  0  0  0  0  0  0  0  0  0
  -17.5314   12.4219   27.2532 O   0  0  0  0  0  0  0  0  0  0  0  0
  -20.1679   13.8378   26.9885 N   0  0  0  0  0  0  0  0  0  0  0  0
  -21.5695   13.5215   26.6916 C   0  0  0  0  0  0  0  0  0  0  0  0
  -19.8593   14.3225   28.3100 C   0  0  0  0  0  0  0  0  0  0  0  0
  -19.0013   13.6158   29.0993 N   0  0  0  0  0  0  0  0  0  0  0  0
  -18.6561   14.0326   30.3467 C   0  0  0  0  0  0  0  0  0  0  0  0
  -19.1766   15.2234   30.8548 C   0  0  0  0  0  0  0  0  0  0  0  0
  -20.0443   15.9789   30.0664 C   0  0  0  0  0  0  0  0  0  0  0  0
  -20.3885   15.5368   28.7871 C   0  0  0  0  0  0  0  0  0  0  0  0
  -21.1901   16.3086   28.0123 F   0  0  0  0  0  0  0  0  0  0  0  0
  -17.5004   14.9419   25.1115 H   0  0  0  0  0  0  0  0  0  0  0  0
  -18.8179   15.9025   25.8741 H   0  0  0  0  0  0  0  0  0  0  0  0
  -17.6131   15.0517   26.9049 H   0  0  0  0  0  0  0  0  0  0  0  0
  -19.5827   13.7004   24.9532 H   0  0  0  0  0  0  0  0  0  0  0  0
  -19.0137   11.5719   26.0944 H   0  0  0  0  0  0  0  0  0  0  0  0
  -17.6422   12.3293   25.2024 H   0  0  0  0  0  0  0  0  0  0  0  0
  -18.1626   12.5548   28.0073 H   0  0  0  0  0  0  0  0  0  0  0  0
  -21.9693   12.8334   27.4664 H   0  0  0  0  0  0  0  0  0  0  0  0
  -22.1722   14.4539   26.6865 H   0  0  0  0  0  0  0  0  0  0  0  0
  -21.6833   13.0213   25.7106 H   0  0  0  0  0  0  0  0  0  0  0  0
  -17.9753   13.4398   30.9428 H   0  0  0  0  0  0  0  0  0  0  0  0
  -18.9034   15.5611   31.8461 H   0  0  0  0  0  0  0  0  0  0  0  0
  -20.4418   16.9125   30.4435 H   0  0  0  0  0  0  0  0  0  0  0  0
  1  2  1  0
  2  3  1  0
  3  4  1  0
  2  5  1  0
  5  6  1  0
  5  7  1  0
  7  8  2  0
  8  9  1  0
  9 10  2  0
 10 11  1  0
 11 12  2  0
 12 13  1  0
  7 12  1  0
  1 14  1  0
  1 15  1  0
  1 16  1  0
  2 17  1  0
  3 18  1  0
  3 19  1  0
  4 20  1  0
  6 21  1  0
  6 22  1  0
  6 23  1  0
  9 24  1  0
 10 25  1  0
 11 26  1  0
M  END
>  <CHROM.1>  (1) 
57.38810842,57.29726562,133.67282876,-63.93085434,2.14139099,-0.75901836
1.21791137

>  <Name>  (1) 
F618

>  <RI>  (1) 
3.34365e+07

>  <Rbt.Current_Directory>  (1) 
/data/out

>  <Rbt.Executable>  (1) 
rbdock ($Id: //depot/dev/client3/rdock/2013.1/src/exe/rbdock.cxx#4 $)

>  <Rbt.Library>  (1) 
libRbt.so (2013.1, Build901 2013/11/27)

>  <Rbt.Parameter_File>  (1) 
/python_libraries/phenodiscovery/docking/templates/RDOCK_TETHER.conf

>  <Rbt.Receptor>  (1) 
/data/out/rdock-opt/grid/rdock-grid.prm

>  <SCORE>  (1) 
-3.13186

>  <SCORE.INTER>  (1) 
-0.0195835

>  <SCORE.INTER.CONST>  (1) 
1

>  <SCORE.INTER.POLAR>  (1) 
0

>  <SCORE.INTER.REPUL>  (1) 
0

>  <SCORE.INTER.ROT>  (1) 
3

>  <SCORE.INTER.VDW>  (1) 
-8.41958

>  <SCORE.INTER.norm>  (1) 
-0.00150643

>  <SCORE.INTRA>  (1) 
-3.11228

>  <SCORE.INTRA.DIHEDRAL>  (1) 
2.88699

>  <SCORE.INTRA.DIHEDRAL.0>  (1) 
9.7439

>  <SCORE.INTRA.POLAR>  (1) 
-1

>  <SCORE.INTRA.POLAR.0>  (1) 
0

>  <SCORE.INTRA.REPUL>  (1) 
0

>  <SCORE.INTRA.REPUL.0>  (1) 
0

>  <SCORE.INTRA.VDW>  (1) 
-1.15577

>  <SCORE.INTRA.VDW.0>  (1) 
-1.15481

>  <SCORE.INTRA.norm>  (1) 
-0.239406

>  <SCORE.RESTR>  (1) 
0

>  <SCORE.RESTR.CAVITY>  (1) 
0

>  <SCORE.RESTR.norm>  (1) 
0

>  <SCORE.SYSTEM>  (1) 
0

>  <SCORE.SYSTEM.CONST>  (1) 
0

>  <SCORE.SYSTEM.DIHEDRAL>  (1) 
0

>  <SCORE.SYSTEM.norm>  (1) 
0

>  <SCORE.heavy>  (1) 
13

>  <SCORE.norm>  (1) 
-0.240913

>  <TETHERED ATOMS>  (1) 
7,12,11,10,9,2,5,3,4,13

>  <skeledock_score>  (1) 
53

$$$$
