F13
     RDKit          3D

 16 16  0  0  0  0  0  0  0  0999 V2000
  -18.5011   13.0020   30.6875 Br  0  0  0  0  0  0  0  0  0  0  0  0
  -19.2883   13.7170   29.1053 C   0  0  0  0  0  0  0  0  0  0  0  0
  -18.9888   13.3877   27.8031 C   0  0  0  0  0  0  0  0  0  0  0  0
  -19.7806   14.1220   26.9992 N   0  0  0  0  0  0  0  0  0  0  0  0
  -19.8159   14.0649   25.5403 C   0  0  0  0  0  0  0  0  0  0  0  0
  -18.6270   14.8160   24.9393 C   0  0  0  0  0  0  0  0  0  0  0  0
  -18.6682   16.1724   25.2927 O   0  0  0  0  0  0  0  0  0  0  0  0
  -20.5708   14.8979   27.7263 N   0  0  0  0  0  0  0  0  0  0  0  0
  -20.2855   14.6676   29.0232 C   0  0  0  0  0  0  0  0  0  0  0  0
  -18.2575   12.6632   27.4684 H   0  0  0  0  0  0  0  0  0  0  0  0
  -19.7781   13.0025   25.2164 H   0  0  0  0  0  0  0  0  0  0  0  0
  -20.7647   14.5034   25.1597 H   0  0  0  0  0  0  0  0  0  0  0  0
  -18.6773   14.7383   23.8327 H   0  0  0  0  0  0  0  0  0  0  0  0
  -17.6691   14.3500   25.2663 H   0  0  0  0  0  0  0  0  0  0  0  0
  -17.8956   16.6081   24.8469 H   0  0  0  0  0  0  0  0  0  0  0  0
  -20.7745   15.1586   29.8537 H   0  0  0  0  0  0  0  0  0  0  0  0
  1  2  1  0
  2  3  2  0
  3  4  1  0
  4  5  1  0
  5  6  1  0
  6  7  1  0
  4  8  1  0
  8  9  2  0
  9  2  1  0
  3 10  1  0
  5 11  1  0
  5 12  1  0
  6 13  1  0
  6 14  1  0
  7 15  1  0
  9 16  1  0
M  END
>  <CHROM.1>  (1) 
-77.49370020,-61.74604455,-177.89364760,-3.01016654,-1.36552303,-2.63801481

>  <Name>  (1) 
F13

>  <RI>  (1) 
3.64417e+07

>  <Rbt.Current_Directory>  (1) 
/data/out

>  <Rbt.Executable>  (1) 
rbdock ($Id: //depot/dev/client3/rdock/2013.1/src/exe/rbdock.cxx#4 $)

>  <Rbt.Library>  (1) 
libRbt.so (2013.1, Build901 2013/11/27)

>  <Rbt.Parameter_File>  (1) 
/python_libraries/phenodiscovery/docking/templates/RDOCK_TETHER.conf

>  <Rbt.Receptor>  (1) 
/data/out/rdock-opt/grid/rdock-grid.prm

>  <SCORE>  (1) 
-3.84068

>  <SCORE.INTER>  (1) 
-2.77136

>  <SCORE.INTER.CONST>  (1) 
1

>  <SCORE.INTER.POLAR>  (1) 
-0.938083

>  <SCORE.INTER.REPUL>  (1) 
0

>  <SCORE.INTER.ROT>  (1) 
2

>  <SCORE.INTER.VDW>  (1) 
-6.98188

>  <SCORE.INTER.norm>  (1) 
-0.307929

>  <SCORE.INTRA>  (1) 
-1.06932

>  <SCORE.INTRA.DIHEDRAL>  (1) 
-2.27108

>  <SCORE.INTRA.DIHEDRAL.0>  (1) 
4.59551

>  <SCORE.INTRA.POLAR>  (1) 
0

>  <SCORE.INTRA.POLAR.0>  (1) 
0

>  <SCORE.INTRA.REPUL>  (1) 
0

>  <SCORE.INTRA.REPUL.0>  (1) 
0

>  <SCORE.INTRA.VDW>  (1) 
0.0662189

>  <SCORE.INTRA.VDW.0>  (1) 
-0.648144

>  <SCORE.INTRA.norm>  (1) 
-0.118814

>  <SCORE.RESTR>  (1) 
0

>  <SCORE.RESTR.CAVITY>  (1) 
0

>  <SCORE.RESTR.norm>  (1) 
0

>  <SCORE.SYSTEM>  (1) 
0

>  <SCORE.SYSTEM.CONST>  (1) 
0

>  <SCORE.SYSTEM.DIHEDRAL>  (1) 
0

>  <SCORE.SYSTEM.norm>  (1) 
0

>  <SCORE.heavy>  (1) 
9

>  <SCORE.norm>  (1) 
-0.426742

>  <TETHERED ATOMS>  (1) 
2,3,4,5,6,7,9

>  <skeledock_score>  (1) 
30

$$$$
