F367
     RDKit          3D

 31 32  0  0  0  0  0  0  0  0999 V2000
  -20.0165   17.7725   31.7881 C   0  0  0  0  0  0  0  0  0  0  0  0
  -20.9227   17.0911   30.7697 C   0  0  0  0  0  0  0  0  0  0  0  0
  -20.3101   15.8560   30.2884 N   0  0  0  0  0  0  0  0  0  0  0  0
  -20.1763   15.4884   28.9997 C   0  0  0  0  0  0  0  0  0  0  0  0
  -19.5579   14.2550   28.9737 C   0  0  0  0  0  0  0  0  0  0  0  0
  -19.0792   13.4853   27.7811 C   0  0  0  0  0  0  0  0  0  0  0  0
  -19.9309   13.7315   26.6187 N   0  0  0  0  0  0  0  0  0  0  0  0
  -19.3799   13.9815   25.3184 C   0  0  0  0  0  0  0  0  0  0  0  0
  -19.3679   15.1635   24.8814 O   0  0  0  0  0  0  0  0  0  0  0  0
  -18.8075   12.8943   24.4904 C   0  0  0  0  0  0  0  0  0  0  0  0
  -17.8839   13.1842   23.4732 C   0  0  0  0  0  0  0  0  0  0  0  0
  -17.3368   12.1527   22.7081 C   0  0  0  0  0  0  0  0  0  0  0  0
  -17.7085   10.8340   22.9724 C   0  0  0  0  0  0  0  0  0  0  0  0
  -18.5904   10.5628   23.9700 N   0  0  0  0  0  0  0  0  0  0  0  0
  -19.1394   11.5495   24.7279 C   0  0  0  0  0  0  0  0  0  0  0  0
  -19.3207   13.9403   30.2981 C   0  0  0  0  0  0  0  0  0  0  0  0
  -19.7960   14.9280   31.0818 N   0  0  0  0  0  0  0  0  0  0  0  0
  -19.0318   18.0015   31.3279 H   0  0  0  0  0  0  0  0  0  0  0  0
  -19.8645   17.1138   32.6692 H   0  0  0  0  0  0  0  0  0  0  0  0
  -20.4835   18.7210   32.1277 H   0  0  0  0  0  0  0  0  0  0  0  0
  -21.1012   17.7880   29.9215 H   0  0  0  0  0  0  0  0  0  0  0  0
  -21.9026   16.8579   31.2385 H   0  0  0  0  0  0  0  0  0  0  0  0
  -20.4870   16.0793   28.1474 H   0  0  0  0  0  0  0  0  0  0  0  0
  -18.0239   13.7590   27.5748 H   0  0  0  0  0  0  0  0  0  0  0  0
  -19.1058   12.3999   28.0166 H   0  0  0  0  0  0  0  0  0  0  0  0
  -20.9082   13.3625   26.6614 H   0  0  0  0  0  0  0  0  0  0  0  0
  -17.5947   14.2067   23.2639 H   0  0  0  0  0  0  0  0  0  0  0  0
  -16.6307   12.3733   21.9181 H   0  0  0  0  0  0  0  0  0  0  0  0
  -17.2917   10.0248   22.3877 H   0  0  0  0  0  0  0  0  0  0  0  0
  -19.8227   11.2809   25.5222 H   0  0  0  0  0  0  0  0  0  0  0  0
  -18.8187   13.0563   30.6682 H   0  0  0  0  0  0  0  0  0  0  0  0
  1  2  1  0
  2  3  1  0
  3  4  1  0
  4  5  2  0
  5  6  1  0
  6  7  1  0
  7  8  1  0
  8  9  2  0
  8 10  1  0
 10 11  2  0
 11 12  1  0
 12 13  2  0
 13 14  1  0
 14 15  2  0
  5 16  1  0
 16 17  2  0
 17  3  1  0
 10 15  1  0
  1 18  1  0
  1 19  1  0
  1 20  1  0
  2 21  1  0
  2 22  1  0
  4 23  1  0
  6 24  1  0
  6 25  1  0
  7 26  1  0
 11 27  1  0
 12 28  1  0
 13 29  1  0
 15 30  1  0
 16 31  1  0
M  END
>  <CHROM.1>  (1) 
-130.99085849,-32.46215885,135.46835560,-103.55003217,-157.80085112,1.92044003
-1.22676048,1.70351681

>  <Name>  (1) 
F367

>  <RI>  (1) 
1.6569e+07

>  <Rbt.Current_Directory>  (1) 
/data/out

>  <Rbt.Executable>  (1) 
rbdock ($Id: //depot/dev/client3/rdock/2013.1/src/exe/rbdock.cxx#4 $)

>  <Rbt.Library>  (1) 
libRbt.so (2013.1, Build901 2013/11/27)

>  <Rbt.Parameter_File>  (1) 
/python_libraries/phenodiscovery/docking/templates/RDOCK_TETHER.conf

>  <Rbt.Receptor>  (1) 
/data/out/rdock-opt/grid/rdock-grid.prm

>  <SCORE>  (1) 
-2.91966

>  <SCORE.INTER>  (1) 
-2.52751

>  <SCORE.INTER.CONST>  (1) 
1

>  <SCORE.INTER.POLAR>  (1) 
0

>  <SCORE.INTER.REPUL>  (1) 
0

>  <SCORE.INTER.ROT>  (1) 
5

>  <SCORE.INTER.VDW>  (1) 
-12.9275

>  <SCORE.INTER.norm>  (1) 
-0.148677

>  <SCORE.INTRA>  (1) 
-0.392141

>  <SCORE.INTRA.DIHEDRAL>  (1) 
-0.681248

>  <SCORE.INTRA.DIHEDRAL.0>  (1) 
7.87174

>  <SCORE.INTRA.POLAR>  (1) 
0

>  <SCORE.INTRA.POLAR.0>  (1) 
0

>  <SCORE.INTRA.REPUL>  (1) 
0

>  <SCORE.INTRA.REPUL.0>  (1) 
0

>  <SCORE.INTRA.VDW>  (1) 
-0.051517

>  <SCORE.INTRA.VDW.0>  (1) 
-2.55239

>  <SCORE.INTRA.norm>  (1) 
-0.0230671

>  <SCORE.RESTR>  (1) 
0

>  <SCORE.RESTR.CAVITY>  (1) 
0

>  <SCORE.RESTR.norm>  (1) 
0

>  <SCORE.SYSTEM>  (1) 
0

>  <SCORE.SYSTEM.CONST>  (1) 
0

>  <SCORE.SYSTEM.DIHEDRAL>  (1) 
0

>  <SCORE.SYSTEM.norm>  (1) 
0

>  <SCORE.heavy>  (1) 
17

>  <SCORE.norm>  (1) 
-0.171744

>  <TETHERED ATOMS>  (1) 
4,5,6,7,8,9,10,16,3,17

>  <skeledock_score>  (1) 
56

$$$$
