F393
     RDKit          3D

 24 24  0  0  0  0  0  0  0  0999 V2000
  -19.7687   11.8221   25.1689 C   0  0  0  0  0  0  0  0  0  0  0  0
  -20.1831   13.2629   25.4365 C   0  0  0  0  0  0  0  0  0  0  0  0
  -19.8082   13.6660   26.7521 O   0  0  0  0  0  0  0  0  0  0  0  0
  -20.0419   14.9472   27.2692 C   0  0  0  0  0  0  0  0  0  0  0  0
  -20.6011   15.8246   26.5546 O   0  0  0  0  0  0  0  0  0  0  0  0
  -19.6147   15.2683   28.6064 N   0  0  0  0  0  0  0  0  0  0  0  0
  -19.8987   16.5918   29.1746 C   0  0  0  0  0  0  0  0  0  0  0  0
  -18.8762   16.9299   30.2636 C   0  0  0  0  0  0  0  0  0  0  0  0
  -18.7801   15.8802   31.2060 O   0  0  0  0  0  0  0  0  0  0  0  0
  -18.2474   14.7297   30.5799 C   0  0  0  0  0  0  0  0  0  0  0  0
  -19.2103   14.1915   29.5175 C   0  0  0  0  0  0  0  0  0  0  0  0
  -18.6753   11.7075   25.3256 H   0  0  0  0  0  0  0  0  0  0  0  0
  -20.3080   11.1294   25.8475 H   0  0  0  0  0  0  0  0  0  0  0  0
  -20.0119   11.5527   24.1196 H   0  0  0  0  0  0  0  0  0  0  0  0
  -19.6651   13.9202   24.7067 H   0  0  0  0  0  0  0  0  0  0  0  0
  -21.2786   13.3851   25.2922 H   0  0  0  0  0  0  0  0  0  0  0  0
  -20.9210   16.5897   29.6106 H   0  0  0  0  0  0  0  0  0  0  0  0
  -19.8474   17.3773   28.3897 H   0  0  0  0  0  0  0  0  0  0  0  0
  -17.8841   17.1575   29.8100 H   0  0  0  0  0  0  0  0  0  0  0  0
  -19.2091   17.8485   30.7911 H   0  0  0  0  0  0  0  0  0  0  0  0
  -17.2495   14.9401   30.1307 H   0  0  0  0  0  0  0  0  0  0  0  0
  -18.0956   13.9461   31.3519 H   0  0  0  0  0  0  0  0  0  0  0  0
  -18.6979   13.3749   28.9648 H   0  0  0  0  0  0  0  0  0  0  0  0
  -20.1140   13.7737   30.0113 H   0  0  0  0  0  0  0  0  0  0  0  0
  1  2  1  0
  2  3  1  0
  3  4  1  0
  4  5  2  0
  4  6  1  0
  6  7  1  0
  7  8  1  0
  8  9  1  0
  9 10  1  0
 10 11  1  0
 11  6  1  0
  1 12  1  0
  1 13  1  0
  1 14  1  0
  2 15  1  0
  2 16  1  0
  7 17  1  0
  7 18  1  0
  8 19  1  0
  8 20  1  0
 10 21  1  0
 10 22  1  0
 11 23  1  0
 11 24  1  0
M  END
>  <CHROM.1>  (1) 
178.94882431,-0.77341618,1.93618372,1.07116946,-2.52103799

>  <Name>  (1) 
F393

>  <RI>  (1) 
9.70309e+06

>  <Rbt.Current_Directory>  (1) 
/data/out

>  <Rbt.Executable>  (1) 
rbdock ($Id: //depot/dev/client3/rdock/2013.1/src/exe/rbdock.cxx#4 $)

>  <Rbt.Library>  (1) 
libRbt.so (2013.1, Build901 2013/11/27)

>  <Rbt.Parameter_File>  (1) 
/python_libraries/phenodiscovery/docking/templates/RDOCK_TETHER.conf

>  <Rbt.Receptor>  (1) 
/data/out/rdock-opt/grid/rdock-grid.prm

>  <SCORE>  (1) 
-0.787273

>  <SCORE.INTER>  (1) 
-0.463424

>  <SCORE.INTER.CONST>  (1) 
1

>  <SCORE.INTER.POLAR>  (1) 
0

>  <SCORE.INTER.REPUL>  (1) 
0

>  <SCORE.INTER.ROT>  (1) 
2

>  <SCORE.INTER.VDW>  (1) 
-7.86342

>  <SCORE.INTER.norm>  (1) 
-0.0421294

>  <SCORE.INTRA>  (1) 
-0.323849

>  <SCORE.INTRA.DIHEDRAL>  (1) 
-0.897136

>  <SCORE.INTRA.DIHEDRAL.0>  (1) 
0.907453

>  <SCORE.INTRA.POLAR>  (1) 
0

>  <SCORE.INTRA.POLAR.0>  (1) 
0

>  <SCORE.INTRA.REPUL>  (1) 
0

>  <SCORE.INTRA.REPUL.0>  (1) 
0

>  <SCORE.INTRA.VDW>  (1) 
0.124719

>  <SCORE.INTRA.VDW.0>  (1) 
-0.629113

>  <SCORE.INTRA.norm>  (1) 
-0.0294408

>  <SCORE.RESTR>  (1) 
0

>  <SCORE.RESTR.CAVITY>  (1) 
0

>  <SCORE.RESTR.norm>  (1) 
0

>  <SCORE.SYSTEM>  (1) 
0

>  <SCORE.SYSTEM.CONST>  (1) 
0

>  <SCORE.SYSTEM.DIHEDRAL>  (1) 
0

>  <SCORE.SYSTEM.norm>  (1) 
0

>  <SCORE.heavy>  (1) 
11

>  <SCORE.norm>  (1) 
-0.0715702

>  <TETHERED ATOMS>  (1) 
4,8,10,11,7,2,1

>  <skeledock_score>  (1) 
36

$$$$
