F368
     RDKit          3D

 29 30  0  0  0  0  0  0  0  0999 V2000
  -19.5971   15.7891   31.3003 C   0  0  0  0  0  0  0  0  0  0  0  0
  -20.3663   15.3178   30.0710 C   0  0  0  0  0  0  0  0  0  0  0  0
  -19.6426   14.2504   29.3900 N   0  0  0  0  0  0  0  0  0  0  0  0
  -19.5421   14.0892   28.0571 C   0  0  0  0  0  0  0  0  0  0  0  0
  -18.7046   13.0227   27.8334 C   0  0  0  0  0  0  0  0  0  0  0  0
  -18.2702   12.5587   26.5488 N   0  0  0  0  0  0  0  0  0  0  0  0
  -18.4417   13.3031   25.3297 C   0  0  0  0  0  0  0  0  0  0  0  0
  -19.0026   14.4312   25.3451 O   0  0  0  0  0  0  0  0  0  0  0  0
  -18.0044   12.7367   24.0010 C   0  0  0  0  0  0  0  0  0  0  0  0
  -18.8725   11.5854   23.4978 C   0  0  0  0  0  0  0  0  0  0  0  0
  -17.6729   10.6491   23.5813 C   0  0  0  0  0  0  0  0  0  0  0  0
  -16.8035   11.7963   24.0817 C   0  0  0  0  0  0  0  0  0  0  0  0
  -18.3391   12.5563   29.0840 C   0  0  0  0  0  0  0  0  0  0  0  0
  -18.9234   13.3315   30.0186 N   0  0  0  0  0  0  0  0  0  0  0  0
  -20.1432   16.6263   31.7837 H   0  0  0  0  0  0  0  0  0  0  0  0
  -19.4949   14.9608   32.0329 H   0  0  0  0  0  0  0  0  0  0  0  0
  -18.5865   16.1428   31.0045 H   0  0  0  0  0  0  0  0  0  0  0  0
  -20.5032   16.1790   29.3810 H   0  0  0  0  0  0  0  0  0  0  0  0
  -21.3716   14.9530   30.3732 H   0  0  0  0  0  0  0  0  0  0  0  0
  -20.0032   14.7253   27.3122 H   0  0  0  0  0  0  0  0  0  0  0  0
  -17.9260   11.5742   26.4911 H   0  0  0  0  0  0  0  0  0  0  0  0
  -17.8641   13.5222   23.2244 H   0  0  0  0  0  0  0  0  0  0  0  0
  -19.2118   11.7405   22.4502 H   0  0  0  0  0  0  0  0  0  0  0  0
  -19.6940   11.2897   24.1869 H   0  0  0  0  0  0  0  0  0  0  0  0
  -17.8069    9.8515   24.3444 H   0  0  0  0  0  0  0  0  0  0  0  0
  -17.3534   10.2736   22.5846 H   0  0  0  0  0  0  0  0  0  0  0  0
  -16.0073   12.0671   23.3541 H   0  0  0  0  0  0  0  0  0  0  0  0
  -16.4175   11.6231   25.1103 H   0  0  0  0  0  0  0  0  0  0  0  0
  -17.6987   11.7159   29.3116 H   0  0  0  0  0  0  0  0  0  0  0  0
  1  2  1  0
  2  3  1  0
  3  4  1  0
  4  5  2  0
  5  6  1  0
  6  7  1  0
  7  8  2  0
  7  9  1  0
  9 10  1  0
 10 11  1  0
 11 12  1  0
  5 13  1  0
 13 14  2  0
 14  3  1  0
 12  9  1  0
  1 15  1  0
  1 16  1  0
  1 17  1  0
  2 18  1  0
  2 19  1  0
  4 20  1  0
  6 21  1  0
  9 22  1  0
 10 23  1  0
 10 24  1  0
 11 25  1  0
 11 26  1  0
 12 27  1  0
 12 28  1  0
 13 29  1  0
M  END
>  <CHROM.1>  (1) 
-141.22050486,12.66696744,71.00660278,2.27005841,-1.06246049,1.89327517

>  <Name>  (1) 
F368

>  <RI>  (1) 
3.73511e+07

>  <Rbt.Current_Directory>  (1) 
/data/out

>  <Rbt.Executable>  (1) 
rbdock ($Id: //depot/dev/client3/rdock/2013.1/src/exe/rbdock.cxx#4 $)

>  <Rbt.Library>  (1) 
libRbt.so (2013.1, Build901 2013/11/27)

>  <Rbt.Parameter_File>  (1) 
/python_libraries/phenodiscovery/docking/templates/RDOCK_TETHER.conf

>  <Rbt.Receptor>  (1) 
/data/out/rdock-opt/grid/rdock-grid.prm

>  <SCORE>  (1) 
2.95105

>  <SCORE.INTER>  (1) 
0.485545

>  <SCORE.INTER.CONST>  (1) 
1

>  <SCORE.INTER.POLAR>  (1) 
0

>  <SCORE.INTER.REPUL>  (1) 
0

>  <SCORE.INTER.ROT>  (1) 
3

>  <SCORE.INTER.VDW>  (1) 
-7.91446

>  <SCORE.INTER.norm>  (1) 
0.0346818

>  <SCORE.INTRA>  (1) 
2.36896

>  <SCORE.INTRA.DIHEDRAL>  (1) 
-1.27353

>  <SCORE.INTRA.DIHEDRAL.0>  (1) 
10.4447

>  <SCORE.INTRA.POLAR>  (1) 
0

>  <SCORE.INTRA.POLAR.0>  (1) 
0

>  <SCORE.INTRA.REPUL>  (1) 
0

>  <SCORE.INTRA.REPUL.0>  (1) 
0

>  <SCORE.INTRA.VDW>  (1) 
3.00572

>  <SCORE.INTRA.VDW.0>  (1) 
-2.16632

>  <SCORE.INTRA.norm>  (1) 
0.169212

>  <SCORE.RESTR>  (1) 
0.096546

>  <SCORE.RESTR.CAVITY>  (1) 
0.096546

>  <SCORE.RESTR.norm>  (1) 
0.00689614

>  <SCORE.SYSTEM>  (1) 
0

>  <SCORE.SYSTEM.CONST>  (1) 
0

>  <SCORE.SYSTEM.DIHEDRAL>  (1) 
0

>  <SCORE.SYSTEM.norm>  (1) 
0

>  <SCORE.heavy>  (1) 
14

>  <SCORE.norm>  (1) 
0.210789

>  <TETHERED ATOMS>  (1) 
4,5,6,7,8,9,2,3

>  <skeledock_score>  (1) 
34

$$$$
