F687
     RDKit          3D

 24 25  0  0  0  0  0  0  0  0999 V2000
  -20.7351   13.7647   27.6955 F   0  0  0  0  0  0  0  0  0  0  0  0
  -20.3383   14.7761   28.5088 C   0  0  0  0  0  0  0  0  0  0  0  0
  -20.9480   16.0285   28.3819 C   0  0  0  0  0  0  0  0  0  0  0  0
  -20.5566   17.0869   29.2038 C   0  0  0  0  0  0  0  0  0  0  0  0
  -19.5539   16.8966   30.1557 C   0  0  0  0  0  0  0  0  0  0  0  0
  -18.9394   15.6481   30.2888 C   0  0  0  0  0  0  0  0  0  0  0  0
  -19.3249   14.5705   29.4645 C   0  0  0  0  0  0  0  0  0  0  0  0
  -18.7025   13.2731   29.5739 N   0  0  0  0  0  0  0  0  0  0  0  0
  -17.8158   12.8709   30.6677 C   0  0  0  0  0  0  0  0  0  0  0  0
  -18.5133   12.9113   31.9974 C   0  0  0  0  0  0  0  0  0  0  0  0
  -18.2446   12.1281   33.1082 C   0  0  0  0  0  0  0  0  0  0  0  0
  -19.1710   12.5333   34.0441 C   0  0  0  0  0  0  0  0  0  0  0  0
  -19.9389   13.4947   33.5025 N   0  0  0  0  0  0  0  0  0  0  0  0
  -19.5512   13.7290   32.2597 N   0  0  0  0  0  0  0  0  0  0  0  0
  -21.7257   16.1795   27.6442 H   0  0  0  0  0  0  0  0  0  0  0  0
  -21.0304   18.0548   29.1025 H   0  0  0  0  0  0  0  0  0  0  0  0
  -19.2508   17.7185   30.7916 H   0  0  0  0  0  0  0  0  0  0  0  0
  -18.1643   15.5367   31.0337 H   0  0  0  0  0  0  0  0  0  0  0  0
  -18.9220   12.5468   28.8552 H   0  0  0  0  0  0  0  0  0  0  0  0
  -16.9457   13.5604   30.7109 H   0  0  0  0  0  0  0  0  0  0  0  0
  -17.4207   11.8511   30.4745 H   0  0  0  0  0  0  0  0  0  0  0  0
  -17.4865   11.3647   33.2226 H   0  0  0  0  0  0  0  0  0  0  0  0
  -19.2812   12.1496   35.0496 H   0  0  0  0  0  0  0  0  0  0  0  0
  -20.7280   13.9887   33.9744 H   0  0  0  0  0  0  0  0  0  0  0  0
  1  2  1  0
  2  3  2  0
  3  4  1  0
  4  5  2  0
  5  6  1  0
  6  7  2  0
  7  8  1  0
  8  9  1  0
  9 10  1  0
 10 11  1  0
 11 12  2  0
 12 13  1  0
 13 14  1  0
  2  7  1  0
 10 14  2  0
  3 15  1  0
  4 16  1  0
  5 17  1  0
  6 18  1  0
  8 19  1  0
  9 20  1  0
  9 21  1  0
 11 22  1  0
 12 23  1  0
 13 24  1  0
M  END
>  <CHROM.1>  (1) 
-168.84461793,61.29837454,150.96035603,2.39888294,-0.79022791,0.36690827

>  <Name>  (1) 
F687

>  <RI>  (1) 
1.40706e+07

>  <Rbt.Current_Directory>  (1) 
/data/out

>  <Rbt.Executable>  (1) 
rbdock ($Id: //depot/dev/client3/rdock/2013.1/src/exe/rbdock.cxx#4 $)

>  <Rbt.Library>  (1) 
libRbt.so (2013.1, Build901 2013/11/27)

>  <Rbt.Parameter_File>  (1) 
/python_libraries/phenodiscovery/docking/templates/RDOCK_TETHER.conf

>  <Rbt.Receptor>  (1) 
/data/out/rdock-opt/grid/rdock-grid.prm

>  <SCORE>  (1) 
-0.660302

>  <SCORE.INTER>  (1) 
-1.85436

>  <SCORE.INTER.CONST>  (1) 
1

>  <SCORE.INTER.POLAR>  (1) 
0

>  <SCORE.INTER.REPUL>  (1) 
0

>  <SCORE.INTER.ROT>  (1) 
3

>  <SCORE.INTER.VDW>  (1) 
-10.2544

>  <SCORE.INTER.norm>  (1) 
-0.132454

>  <SCORE.INTRA>  (1) 
1.19406

>  <SCORE.INTRA.DIHEDRAL>  (1) 
1.42045

>  <SCORE.INTRA.DIHEDRAL.0>  (1) 
2.78716

>  <SCORE.INTRA.POLAR>  (1) 
0

>  <SCORE.INTRA.POLAR.0>  (1) 
0

>  <SCORE.INTRA.REPUL>  (1) 
0

>  <SCORE.INTRA.REPUL.0>  (1) 
0

>  <SCORE.INTRA.VDW>  (1) 
0.48383

>  <SCORE.INTRA.VDW.0>  (1) 
-1.46891

>  <SCORE.INTRA.norm>  (1) 
0.0852898

>  <SCORE.RESTR>  (1) 
0

>  <SCORE.RESTR.CAVITY>  (1) 
0

>  <SCORE.RESTR.norm>  (1) 
0

>  <SCORE.SYSTEM>  (1) 
0

>  <SCORE.SYSTEM.CONST>  (1) 
0

>  <SCORE.SYSTEM.DIHEDRAL>  (1) 
0

>  <SCORE.SYSTEM.norm>  (1) 
0

>  <SCORE.heavy>  (1) 
14

>  <SCORE.norm>  (1) 
-0.0471645

>  <TETHERED ATOMS>  (1) 
2,7,6,5,3,4,1,8,9

>  <skeledock_score>  (1) 
50

$$$$
