F741
     RDKit          3D

 25 27  0  0  0  0  0  0  0  0999 V2000
  -18.4690   13.4794   28.2655 O   0  0  0  0  0  0  0  0  0  0  0  0
  -19.4141   14.2956   28.0896 C   0  0  0  0  0  0  0  0  0  0  0  0
  -19.5031   15.0251   26.8581 N   0  0  0  0  0  0  0  0  0  0  0  0
  -18.5375   14.8223   25.7816 C   0  0  0  0  0  0  0  0  0  0  0  0
  -18.6597   13.4710   25.0963 C   0  0  0  0  0  0  0  0  0  0  0  0
  -19.1766   14.7217   24.4059 C   0  0  0  0  0  0  0  0  0  0  0  0
  -20.3793   14.5127   29.1830 C   0  0  0  0  0  0  0  0  0  0  0  0
  -20.3879   13.8700   30.4202 C   0  0  0  0  0  0  0  0  0  0  0  0
  -21.4260   14.3131   31.1708 N   0  0  0  0  0  0  0  0  0  0  0  0
  -22.0670   15.2084   30.4401 N   0  0  0  0  0  0  0  0  0  0  0  0
  -23.1842   15.8929   30.7847 C   0  0  0  0  0  0  0  0  0  0  0  0
  -23.7280   16.7764   29.8429 C   0  0  0  0  0  0  0  0  0  0  0  0
  -23.0966   16.9049   28.5900 C   0  0  0  0  0  0  0  0  0  0  0  0
  -21.9732   16.1840   28.3040 N   0  0  0  0  0  0  0  0  0  0  0  0
  -21.4721   15.3518   29.2505 C   0  0  0  0  0  0  0  0  0  0  0  0
  -20.2744   15.7105   26.7062 H   0  0  0  0  0  0  0  0  0  0  0  0
  -17.5404   15.3070   25.8441 H   0  0  0  0  0  0  0  0  0  0  0  0
  -19.4615   12.8037   25.4793 H   0  0  0  0  0  0  0  0  0  0  0  0
  -17.7079   13.0834   24.6759 H   0  0  0  0  0  0  0  0  0  0  0  0
  -20.2851   14.7976   24.3814 H   0  0  0  0  0  0  0  0  0  0  0  0
  -18.5331   15.0768   23.5736 H   0  0  0  0  0  0  0  0  0  0  0  0
  -19.6783   13.1244   30.7539 H   0  0  0  0  0  0  0  0  0  0  0  0
  -23.6456   15.7562   31.7545 H   0  0  0  0  0  0  0  0  0  0  0  0
  -24.6203   17.3444   30.0715 H   0  0  0  0  0  0  0  0  0  0  0  0
  -23.5055   17.5764   27.8471 H   0  0  0  0  0  0  0  0  0  0  0  0
  1  2  2  0
  2  3  1  0
  3  4  1  0
  4  5  1  0
  5  6  1  0
  2  7  1  0
  7  8  1  0
  8  9  2  0
  9 10  1  0
 10 11  1  0
 11 12  2  0
 12 13  1  0
 13 14  2  0
 14 15  1  0
  6  4  1  0
  7 15  2  0
 15 10  1  0
  3 16  1  0
  4 17  1  0
  5 18  1  0
  5 19  1  0
  6 20  1  0
  6 21  1  0
  8 22  1  0
 11 23  1  0
 12 24  1  0
 13 25  1  0
M  END
>  <CHROM.1>  (1) 
69.76980156,-1.90097945,-2.22228832,0.72848551,-1.23187229

>  <Name>  (1) 
F741

>  <RI>  (1) 
1.65679e+07

>  <Rbt.Current_Directory>  (1) 
/data/out

>  <Rbt.Executable>  (1) 
rbdock ($Id: //depot/dev/client3/rdock/2013.1/src/exe/rbdock.cxx#4 $)

>  <Rbt.Library>  (1) 
libRbt.so (2013.1, Build901 2013/11/27)

>  <Rbt.Parameter_File>  (1) 
/python_libraries/phenodiscovery/docking/templates/RDOCK_TETHER.conf

>  <Rbt.Receptor>  (1) 
/data/out/rdock-opt/grid/rdock-grid.prm

>  <SCORE>  (1) 
0.6496

>  <SCORE.INTER>  (1) 
1.89584

>  <SCORE.INTER.CONST>  (1) 
1

>  <SCORE.INTER.POLAR>  (1) 
0

>  <SCORE.INTER.REPUL>  (1) 
0

>  <SCORE.INTER.ROT>  (1) 
2

>  <SCORE.INTER.VDW>  (1) 
-5.50416

>  <SCORE.INTER.norm>  (1) 
0.126389

>  <SCORE.INTRA>  (1) 
-1.24624

>  <SCORE.INTRA.DIHEDRAL>  (1) 
-1.17762

>  <SCORE.INTRA.DIHEDRAL.0>  (1) 
2.3917

>  <SCORE.INTRA.POLAR>  (1) 
-0.194847

>  <SCORE.INTRA.POLAR.0>  (1) 
-0.0397117

>  <SCORE.INTRA.REPUL>  (1) 
0

>  <SCORE.INTRA.REPUL.0>  (1) 
0

>  <SCORE.INTRA.VDW>  (1) 
0.00505409

>  <SCORE.INTRA.VDW.0>  (1) 
-1.77192

>  <SCORE.INTRA.norm>  (1) 
-0.0830826

>  <SCORE.RESTR>  (1) 
0

>  <SCORE.RESTR.CAVITY>  (1) 
0

>  <SCORE.RESTR.norm>  (1) 
0

>  <SCORE.SYSTEM>  (1) 
0

>  <SCORE.SYSTEM.CONST>  (1) 
0

>  <SCORE.SYSTEM.DIHEDRAL>  (1) 
0

>  <SCORE.SYSTEM.norm>  (1) 
0

>  <SCORE.heavy>  (1) 
15

>  <SCORE.norm>  (1) 
0.0433066

>  <TETHERED ATOMS>  (1) 
2,3,4,6,7,15,14,8,5

>  <skeledock_score>  (1) 
27

$$$$
