F96
     RDKit          3D

 19 19  0  0  0  0  0  0  0  0999 V2000
  -19.3421   14.8009   24.6020 C   0  0  0  0  0  0  0  0  0  0  0  0
  -19.7564   14.0777   25.8394 C   0  0  0  0  0  0  0  0  0  0  0  0
  -20.9548   13.7132   25.9707 O   0  0  0  0  0  0  0  0  0  0  0  0
  -18.7936   13.8006   26.8663 N   0  0  0  0  0  0  0  0  0  0  0  0
  -19.1261   13.0638   28.0839 C   0  0  0  0  0  0  0  0  0  0  0  0
  -19.3330   14.0053   29.2307 C   0  0  0  0  0  0  0  0  0  0  0  0
  -20.5327   14.5247   29.6784 C   0  0  0  0  0  0  0  0  0  0  0  0
  -20.2906   15.3909   30.6818 N   0  0  0  0  0  0  0  0  0  0  0  0
  -18.9814   15.4320   30.8749 N   0  0  0  0  0  0  0  0  0  0  0  0
  -18.3671   14.6084   30.0077 C   0  0  0  0  0  0  0  0  0  0  0  0
  -20.2051   14.9298   23.9145 H   0  0  0  0  0  0  0  0  0  0  0  0
  -18.5505   14.2224   24.0818 H   0  0  0  0  0  0  0  0  0  0  0  0
  -18.9454   15.8015   24.8728 H   0  0  0  0  0  0  0  0  0  0  0  0
  -17.8231   14.1744   26.7631 H   0  0  0  0  0  0  0  0  0  0  0  0
  -18.2993   12.3602   28.3209 H   0  0  0  0  0  0  0  0  0  0  0  0
  -20.0452   12.4581   27.9346 H   0  0  0  0  0  0  0  0  0  0  0  0
  -21.5172   14.2983   29.2913 H   0  0  0  0  0  0  0  0  0  0  0  0
  -18.5122   16.0287   31.5913 H   0  0  0  0  0  0  0  0  0  0  0  0
  -17.2961   14.4704   29.9414 H   0  0  0  0  0  0  0  0  0  0  0  0
  1  2  1  0
  2  3  2  0
  2  4  1  0
  4  5  1  0
  5  6  1  0
  6  7  1  0
  7  8  2  0
  8  9  1  0
  9 10  1  0
  6 10  2  0
  1 11  1  0
  1 12  1  0
  1 13  1  0
  4 14  1  0
  5 15  1  0
  5 16  1  0
  7 17  1  0
  9 18  1  0
 10 19  1  0
M  END
>  <CHROM.1>  (1) 
-100.48344050,95.00516764,-1.64377362,-0.14803635,1.37131783

>  <Name>  (1) 
F96

>  <RI>  (1) 
3.36032e+07

>  <Rbt.Current_Directory>  (1) 
/data/out

>  <Rbt.Executable>  (1) 
rbdock ($Id: //depot/dev/client3/rdock/2013.1/src/exe/rbdock.cxx#4 $)

>  <Rbt.Library>  (1) 
libRbt.so (2013.1, Build901 2013/11/27)

>  <Rbt.Parameter_File>  (1) 
/python_libraries/phenodiscovery/docking/templates/RDOCK_TETHER.conf

>  <Rbt.Receptor>  (1) 
/data/out/rdock-opt/grid/rdock-grid.prm

>  <SCORE>  (1) 
0.84399

>  <SCORE.INTER>  (1) 
0.548558

>  <SCORE.INTER.CONST>  (1) 
1

>  <SCORE.INTER.POLAR>  (1) 
0

>  <SCORE.INTER.REPUL>  (1) 
0.00261699

>  <SCORE.INTER.ROT>  (1) 
2

>  <SCORE.INTER.VDW>  (1) 
-6.86453

>  <SCORE.INTER.norm>  (1) 
0.0548558

>  <SCORE.INTRA>  (1) 
0.295432

>  <SCORE.INTRA.DIHEDRAL>  (1) 
0.102481

>  <SCORE.INTRA.DIHEDRAL.0>  (1) 
2.52722

>  <SCORE.INTRA.POLAR>  (1) 
0

>  <SCORE.INTRA.POLAR.0>  (1) 
0

>  <SCORE.INTRA.REPUL>  (1) 
0

>  <SCORE.INTRA.REPUL.0>  (1) 
0

>  <SCORE.INTRA.VDW>  (1) 
0.244191

>  <SCORE.INTRA.VDW.0>  (1) 
-1.13258

>  <SCORE.INTRA.norm>  (1) 
0.0295432

>  <SCORE.RESTR>  (1) 
0

>  <SCORE.RESTR.CAVITY>  (1) 
0

>  <SCORE.RESTR.norm>  (1) 
0

>  <SCORE.SYSTEM>  (1) 
0

>  <SCORE.SYSTEM.CONST>  (1) 
0

>  <SCORE.SYSTEM.DIHEDRAL>  (1) 
0

>  <SCORE.SYSTEM.norm>  (1) 
0

>  <SCORE.heavy>  (1) 
10

>  <SCORE.norm>  (1) 
0.084399

>  <TETHERED ATOMS>  (1) 
1,2,4,5,6,3,10,9,8,7

>  <skeledock_score>  (1) 
61

$$$$
