F467
     RDKit          3D

 23 23  0  0  0  0  0  0  0  0999 V2000
  -20.0012   11.3462   25.4475 C   0  0  0  0  0  0  0  0  0  0  0  0
  -19.0947   12.4920   25.3324 N   0  0  0  0  0  0  0  0  0  0  0  0
  -18.3357   12.6579   24.0838 C   0  0  0  0  0  0  0  0  0  0  0  0
  -17.0917   11.7703   24.0833 C   0  0  0  0  0  0  0  0  0  0  0  0
  -17.4704   10.4349   23.8996 O   0  0  0  0  0  0  0  0  0  0  0  0
  -19.0234   13.4660   26.3966 C   0  0  0  0  0  0  0  0  0  0  0  0
  -18.1050   13.3311   27.4539 C   0  0  0  0  0  0  0  0  0  0  0  0
  -18.0611   14.3036   28.4552 C   0  0  0  0  0  0  0  0  0  0  0  0
  -18.9234   15.3985   28.4007 C   0  0  0  0  0  0  0  0  0  0  0  0
  -19.8257   15.5029   27.3418 C   0  0  0  0  0  0  0  0  0  0  0  0
  -19.8557   14.5460   26.3766 N   0  0  0  0  0  0  0  0  0  0  0  0
  -19.4309   10.4037   25.3076 H   0  0  0  0  0  0  0  0  0  0  0  0
  -20.7904   11.4141   24.6693 H   0  0  0  0  0  0  0  0  0  0  0  0
  -20.4865   11.3049   26.4455 H   0  0  0  0  0  0  0  0  0  0  0  0
  -18.9763   12.4253   23.2083 H   0  0  0  0  0  0  0  0  0  0  0  0
  -18.0107   13.7161   23.9690 H   0  0  0  0  0  0  0  0  0  0  0  0
  -16.5537   11.8738   25.0515 H   0  0  0  0  0  0  0  0  0  0  0  0
  -16.4159   12.0857   23.2570 H   0  0  0  0  0  0  0  0  0  0  0  0
  -16.6485    9.8951   24.0336 H   0  0  0  0  0  0  0  0  0  0  0  0
  -17.4380   12.4834   27.5176 H   0  0  0  0  0  0  0  0  0  0  0  0
  -17.3594   14.2075   29.2738 H   0  0  0  0  0  0  0  0  0  0  0  0
  -18.8952   16.1567   29.1726 H   0  0  0  0  0  0  0  0  0  0  0  0
  -20.5032   16.3443   27.2864 H   0  0  0  0  0  0  0  0  0  0  0  0
  1  2  1  0
  2  3  1  0
  3  4  1  0
  4  5  1  0
  2  6  1  0
  6  7  2  0
  7  8  1  0
  8  9  2  0
  9 10  1  0
 10 11  2  0
  6 11  1  0
  1 12  1  0
  1 13  1  0
  1 14  1  0
  3 15  1  0
  3 16  1  0
  4 17  1  0
  4 18  1  0
  5 19  1  0
  7 20  1  0
  8 21  1  0
  9 22  1  0
 10 23  1  0
M  END
>  <CHROM.1>  (1) 
-81.69986769,73.23166922,-172.30456866,90.71727338,-1.85826901,0.61044549
-2.06942042

>  <Name>  (1) 
F467

>  <RI>  (1) 
2.42528e+07

>  <Rbt.Current_Directory>  (1) 
/data/out

>  <Rbt.Executable>  (1) 
rbdock ($Id: //depot/dev/client3/rdock/2013.1/src/exe/rbdock.cxx#4 $)

>  <Rbt.Library>  (1) 
libRbt.so (2013.1, Build901 2013/11/27)

>  <Rbt.Parameter_File>  (1) 
/python_libraries/phenodiscovery/docking/templates/RDOCK_TETHER.conf

>  <Rbt.Receptor>  (1) 
/data/out/rdock-opt/grid/rdock-grid.prm

>  <SCORE>  (1) 
2.00783

>  <SCORE.INTER>  (1) 
-1.64781

>  <SCORE.INTER.CONST>  (1) 
1

>  <SCORE.INTER.POLAR>  (1) 
-0.798806

>  <SCORE.INTER.REPUL>  (1) 
0

>  <SCORE.INTER.ROT>  (1) 
3

>  <SCORE.INTER.VDW>  (1) 
-7.33187

>  <SCORE.INTER.norm>  (1) 
-0.149801

>  <SCORE.INTRA>  (1) 
3.65564

>  <SCORE.INTRA.DIHEDRAL>  (1) 
9.24259

>  <SCORE.INTRA.DIHEDRAL.0>  (1) 
6.6352

>  <SCORE.INTRA.POLAR>  (1) 
0

>  <SCORE.INTRA.POLAR.0>  (1) 
0

>  <SCORE.INTRA.REPUL>  (1) 
0

>  <SCORE.INTRA.REPUL.0>  (1) 
0

>  <SCORE.INTRA.VDW>  (1) 
-0.965655

>  <SCORE.INTRA.VDW.0>  (1) 
-0.17462

>  <SCORE.INTRA.norm>  (1) 
0.332331

>  <SCORE.RESTR>  (1) 
0

>  <SCORE.RESTR.CAVITY>  (1) 
0

>  <SCORE.RESTR.norm>  (1) 
0

>  <SCORE.SYSTEM>  (1) 
0

>  <SCORE.SYSTEM.CONST>  (1) 
0

>  <SCORE.SYSTEM.DIHEDRAL>  (1) 
0

>  <SCORE.SYSTEM.norm>  (1) 
0

>  <SCORE.heavy>  (1) 
11

>  <SCORE.norm>  (1) 
0.18253

>  <TETHERED ATOMS>  (1) 
7,8,9,10,2,6,11,3,4

>  <skeledock_score>  (1) 
50

$$$$
