F529
     RDKit          3D

 23 23  0  0  0  0  0  0  0  0999 V2000
  -21.1542   13.6478   28.7822 C   0  0  0  0  0  0  0  0  0  0  0  0
  -20.0056   14.4011   28.2908 N   0  0  0  0  0  0  0  0  0  0  0  0
  -19.4133   14.1867   26.9918 C   0  0  0  0  0  0  0  0  0  0  0  0
  -18.4622   13.1617   26.8066 C   0  0  0  0  0  0  0  0  0  0  0  0
  -17.8656   12.9571   25.5621 C   0  0  0  0  0  0  0  0  0  0  0  0
  -18.2060   13.7674   24.4829 C   0  0  0  0  0  0  0  0  0  0  0  0
  -19.1477   14.7835   24.6410 C   0  0  0  0  0  0  0  0  0  0  0  0
  -19.7650   15.0047   25.8846 C   0  0  0  0  0  0  0  0  0  0  0  0
  -20.9876   16.2831   26.0255 S   0  0  0  0  0  0  0  0  0  0  0  0
  -22.0177   15.8749   27.0407 O   0  0  0  0  0  0  0  0  0  0  0  0
  -21.6490   16.4858   24.6910 O   0  0  0  0  0  0  0  0  0  0  0  0
  -20.2950   17.8464   26.5293 C   0  0  0  0  0  0  0  0  0  0  0  0
  -21.9876   13.7094   28.0511 H   0  0  0  0  0  0  0  0  0  0  0  0
  -21.4978   14.0721   29.7495 H   0  0  0  0  0  0  0  0  0  0  0  0
  -20.8715   12.5876   28.9483 H   0  0  0  0  0  0  0  0  0  0  0  0
  -19.6384   15.1477   28.9193 H   0  0  0  0  0  0  0  0  0  0  0  0
  -18.1664   12.5202   27.6249 H   0  0  0  0  0  0  0  0  0  0  0  0
  -17.1342   12.1691   25.4360 H   0  0  0  0  0  0  0  0  0  0  0  0
  -17.7395   13.6074   23.5193 H   0  0  0  0  0  0  0  0  0  0  0  0
  -19.3897   15.3925   23.7822 H   0  0  0  0  0  0  0  0  0  0  0  0
  -19.4952   18.1478   25.8217 H   0  0  0  0  0  0  0  0  0  0  0  0
  -21.0910   18.6194   26.5276 H   0  0  0  0  0  0  0  0  0  0  0  0
  -19.8784   17.7608   27.5541 H   0  0  0  0  0  0  0  0  0  0  0  0
  1  2  1  0
  2  3  1  0
  3  4  2  0
  4  5  1  0
  5  6  2  0
  6  7  1  0
  7  8  2  0
  8  9  1  0
  9 10  2  0
  9 11  2  0
  9 12  1  0
  3  8  1  0
  1 13  1  0
  1 14  1  0
  1 15  1  0
  2 16  1  0
  4 17  1  0
  5 18  1  0
  6 19  1  0
  7 20  1  0
 12 21  1  0
 12 22  1  0
 12 23  1  0
M  END
>  <CHROM.1>  (1) 
-83.94074793,-31.46421635,2.33635993,-0.73491406,2.10565827

>  <Name>  (1) 
F529

>  <RI>  (1) 
1.99104e+07

>  <Rbt.Current_Directory>  (1) 
/data/out

>  <Rbt.Executable>  (1) 
rbdock ($Id: //depot/dev/client3/rdock/2013.1/src/exe/rbdock.cxx#4 $)

>  <Rbt.Library>  (1) 
libRbt.so (2013.1, Build901 2013/11/27)

>  <Rbt.Parameter_File>  (1) 
/python_libraries/phenodiscovery/docking/templates/RDOCK_TETHER.conf

>  <Rbt.Receptor>  (1) 
/data/out/rdock-opt/grid/rdock-grid.prm

>  <SCORE>  (1) 
6.68004

>  <SCORE.INTER>  (1) 
2.30706

>  <SCORE.INTER.CONST>  (1) 
1

>  <SCORE.INTER.POLAR>  (1) 
0

>  <SCORE.INTER.REPUL>  (1) 
0

>  <SCORE.INTER.ROT>  (1) 
2

>  <SCORE.INTER.VDW>  (1) 
-5.09294

>  <SCORE.INTER.norm>  (1) 
0.192255

>  <SCORE.INTRA>  (1) 
4.37298

>  <SCORE.INTRA.DIHEDRAL>  (1) 
11.3129

>  <SCORE.INTRA.DIHEDRAL.0>  (1) 
2.499

>  <SCORE.INTRA.POLAR>  (1) 
0

>  <SCORE.INTRA.POLAR.0>  (1) 
0

>  <SCORE.INTRA.REPUL>  (1) 
0

>  <SCORE.INTRA.REPUL.0>  (1) 
0

>  <SCORE.INTRA.VDW>  (1) 
-1.28348

>  <SCORE.INTRA.VDW.0>  (1) 
-0.600796

>  <SCORE.INTRA.norm>  (1) 
0.364415

>  <SCORE.RESTR>  (1) 
0

>  <SCORE.RESTR.CAVITY>  (1) 
0

>  <SCORE.RESTR.norm>  (1) 
0

>  <SCORE.SYSTEM>  (1) 
0

>  <SCORE.SYSTEM.CONST>  (1) 
0

>  <SCORE.SYSTEM.DIHEDRAL>  (1) 
0

>  <SCORE.SYSTEM.norm>  (1) 
0

>  <SCORE.heavy>  (1) 
12

>  <SCORE.norm>  (1) 
0.55667

>  <TETHERED ATOMS>  (1) 
3,8,7,6,4,5,1,2

>  <skeledock_score>  (1) 
43

$$$$
