F95
     RDKit          3D

 27 27  0  0  0  0  0  0  0  0999 V2000
  -18.4825   10.0615   24.5411 C   0  0  0  0  0  0  0  0  0  0  0  0
  -18.4225   11.5154   24.8791 C   0  0  0  0  0  0  0  0  0  0  0  0
  -19.4906   12.1788   24.9751 O   0  0  0  0  0  0  0  0  0  0  0  0
  -17.1550   12.1465   25.0925 N   0  0  0  0  0  0  0  0  0  0  0  0
  -17.0639   13.5686   25.4153 C   0  0  0  0  0  0  0  0  0  0  0  0
  -18.2050   14.0010   26.2965 C   0  0  0  0  0  0  0  0  0  0  0  0
  -18.3852   13.4259   27.5644 C   0  0  0  0  0  0  0  0  0  0  0  0
  -19.4794   13.7899   28.3539 C   0  0  0  0  0  0  0  0  0  0  0  0
  -20.4004   14.7382   27.8895 C   0  0  0  0  0  0  0  0  0  0  0  0
  -20.2228   15.3144   26.6249 C   0  0  0  0  0  0  0  0  0  0  0  0
  -19.1302   14.9499   25.8333 C   0  0  0  0  0  0  0  0  0  0  0  0
  -21.7893   15.1813   28.8773 S   0  0  0  0  0  0  0  0  0  0  0  0
  -21.6797   16.6218   29.2926 O   0  0  0  0  0  0  0  0  0  0  0  0
  -23.0544   15.0042   28.0852 O   0  0  0  0  0  0  0  0  0  0  0  0
  -21.8449   14.1787   30.2839 N   0  0  0  0  0  0  0  0  0  0  0  0
  -18.0211    9.4708   25.3597 H   0  0  0  0  0  0  0  0  0  0  0  0
  -17.9265    9.8764   23.5985 H   0  0  0  0  0  0  0  0  0  0  0  0
  -19.5354    9.7329   24.4090 H   0  0  0  0  0  0  0  0  0  0  0  0
  -16.2870   11.5689   25.0100 H   0  0  0  0  0  0  0  0  0  0  0  0
  -16.1080   13.7681   25.9468 H   0  0  0  0  0  0  0  0  0  0  0  0
  -17.0536   14.1526   24.4692 H   0  0  0  0  0  0  0  0  0  0  0  0
  -17.6879   12.6865   27.9381 H   0  0  0  0  0  0  0  0  0  0  0  0
  -19.6105   13.3283   29.3243 H   0  0  0  0  0  0  0  0  0  0  0  0
  -20.9329   16.0394   26.2481 H   0  0  0  0  0  0  0  0  0  0  0  0
  -19.0115   15.3957   24.8533 H   0  0  0  0  0  0  0  0  0  0  0  0
  -22.7074   14.4412   30.8116 H   0  0  0  0  0  0  0  0  0  0  0  0
  -21.9815   13.1971   29.9535 H   0  0  0  0  0  0  0  0  0  0  0  0
  1  2  1  0
  2  3  2  0
  2  4  1  0
  4  5  1  0
  5  6  1  0
  6  7  2  0
  7  8  1  0
  8  9  2  0
  9 10  1  0
 10 11  2  0
  9 12  1  0
 12 13  2  0
 12 14  2  0
 12 15  1  0
  6 11  1  0
  1 16  1  0
  1 17  1  0
  1 18  1  0
  4 19  1  0
  5 20  1  0
  5 21  1  0
  7 22  1  0
  8 23  1  0
 10 24  1  0
 11 25  1  0
 15 26  1  0
 15 27  1  0
M  END
>  <CHROM.1>  (1) 
36.16665978,60.85266598,114.62254127,-177.08618609,0.04821651,0.94863478
-0.84775995

>  <Name>  (1) 
F95

>  <RI>  (1) 
3.43494e+07

>  <Rbt.Current_Directory>  (1) 
/data/out

>  <Rbt.Executable>  (1) 
rbdock ($Id: //depot/dev/client3/rdock/2013.1/src/exe/rbdock.cxx#4 $)

>  <Rbt.Library>  (1) 
libRbt.so (2013.1, Build901 2013/11/27)

>  <Rbt.Parameter_File>  (1) 
/python_libraries/phenodiscovery/docking/templates/RDOCK_TETHER.conf

>  <Rbt.Receptor>  (1) 
/data/out/rdock-opt/grid/rdock-grid.prm

>  <SCORE>  (1) 
5.17013

>  <SCORE.INTER>  (1) 
4.91897

>  <SCORE.INTER.CONST>  (1) 
1

>  <SCORE.INTER.POLAR>  (1) 
-0.726809

>  <SCORE.INTER.REPUL>  (1) 
0

>  <SCORE.INTER.ROT>  (1) 
4

>  <SCORE.INTER.VDW>  (1) 
-2.00988

>  <SCORE.INTER.norm>  (1) 
0.327932

>  <SCORE.INTRA>  (1) 
0.251154

>  <SCORE.INTRA.DIHEDRAL>  (1) 
0.0562461

>  <SCORE.INTRA.DIHEDRAL.0>  (1) 
3.0893

>  <SCORE.INTRA.POLAR>  (1) 
0

>  <SCORE.INTRA.POLAR.0>  (1) 
0

>  <SCORE.INTRA.REPUL>  (1) 
0

>  <SCORE.INTRA.REPUL.0>  (1) 
0

>  <SCORE.INTRA.VDW>  (1) 
0.223031

>  <SCORE.INTRA.VDW.0>  (1) 
-1.40786

>  <SCORE.INTRA.norm>  (1) 
0.0167436

>  <SCORE.RESTR>  (1) 
0

>  <SCORE.RESTR.CAVITY>  (1) 
0

>  <SCORE.RESTR.norm>  (1) 
0

>  <SCORE.SYSTEM>  (1) 
0

>  <SCORE.SYSTEM.CONST>  (1) 
0

>  <SCORE.SYSTEM.DIHEDRAL>  (1) 
0

>  <SCORE.SYSTEM.norm>  (1) 
0

>  <SCORE.heavy>  (1) 
15

>  <SCORE.norm>  (1) 
0.344675

>  <TETHERED ATOMS>  (1) 
6,7,8,9,10,11,2,4,5

>  <skeledock_score>  (1) 
48

$$$$
