F710
     RDKit          3D

 30 31  0  0  0  0  0  0  0  0999 V2000
  -24.2897   16.7170   30.6995 N   0  0  0  0  0  0  0  0  0  0  0  0
  -23.0260   16.9496   30.0729 C   0  0  0  0  0  0  0  0  0  0  0  0
  -22.2884   17.8732   30.5115 O   0  0  0  0  0  0  0  0  0  0  0  0
  -22.5963   16.1670   28.9412 N   0  0  0  0  0  0  0  0  0  0  0  0
  -21.6283   16.7554   28.0028 C   0  0  0  0  0  0  0  0  0  0  0  0
  -21.4016   15.8536   26.7878 C   0  0  0  0  0  0  0  0  0  0  0  0
  -21.1486   14.4800   27.2361 N   0  0  0  0  0  0  0  0  0  0  0  0
  -22.0307   13.8686   28.2446 C   0  0  0  0  0  0  0  0  0  0  0  0
  -23.1457   14.8259   28.6875 C   0  0  0  0  0  0  0  0  0  0  0  0
  -20.0234   13.7428   26.7162 C   0  0  0  0  0  0  0  0  0  0  0  0
  -19.8843   13.5413   25.3311 C   0  0  0  0  0  0  0  0  0  0  0  0
  -18.7893   12.8332   24.8255 C   0  0  0  0  0  0  0  0  0  0  0  0
  -17.8233   12.3213   25.6955 C   0  0  0  0  0  0  0  0  0  0  0  0
  -16.7620   11.6360   25.2032 F   0  0  0  0  0  0  0  0  0  0  0  0
  -17.9504   12.5179   27.0723 C   0  0  0  0  0  0  0  0  0  0  0  0
  -19.0428   13.2246   27.5821 C   0  0  0  0  0  0  0  0  0  0  0  0
  -24.5556   17.2570   31.5527 H   0  0  0  0  0  0  0  0  0  0  0  0
  -25.0014   16.0830   30.2750 H   0  0  0  0  0  0  0  0  0  0  0  0
  -21.9992   17.7432   27.6525 H   0  0  0  0  0  0  0  0  0  0  0  0
  -20.6589   16.9070   28.5256 H   0  0  0  0  0  0  0  0  0  0  0  0
  -20.5469   16.2488   26.1963 H   0  0  0  0  0  0  0  0  0  0  0  0
  -22.3060   15.8665   26.1416 H   0  0  0  0  0  0  0  0  0  0  0  0
  -22.4833   12.9419   27.8307 H   0  0  0  0  0  0  0  0  0  0  0  0
  -21.4414   13.5997   29.1454 H   0  0  0  0  0  0  0  0  0  0  0  0
  -23.9231   14.8924   27.8961 H   0  0  0  0  0  0  0  0  0  0  0  0
  -23.6119   14.4033   29.6030 H   0  0  0  0  0  0  0  0  0  0  0  0
  -20.6302   13.9227   24.6452 H   0  0  0  0  0  0  0  0  0  0  0  0
  -18.6923   12.6802   23.7583 H   0  0  0  0  0  0  0  0  0  0  0  0
  -17.1987   12.1274   27.7462 H   0  0  0  0  0  0  0  0  0  0  0  0
  -19.1026   13.3840   28.6494 H   0  0  0  0  0  0  0  0  0  0  0  0
  1  2  1  0
  2  3  2  0
  2  4  1  0
  4  5  1  0
  5  6  1  0
  6  7  1  0
  7  8  1  0
  8  9  1  0
  7 10  1  0
 10 11  2  0
 11 12  1  0
 12 13  2  0
 13 14  1  0
 13 15  1  0
 15 16  2  0
  9  4  1  0
 10 16  1  0
  1 17  1  0
  1 18  1  0
  5 19  1  0
  5 20  1  0
  6 21  1  0
  6 22  1  0
  8 23  1  0
  8 24  1  0
  9 25  1  0
  9 26  1  0
 11 27  1  0
 12 28  1  0
 15 29  1  0
 16 30  1  0
M  END
>  <CHROM.1>  (1) 
-57.19802153,0.46882460,0.75385439,-1.43803281

>  <Name>  (1) 
F710

>  <RI>  (1) 
4.18895e+07

>  <Rbt.Current_Directory>  (1) 
/data/out

>  <Rbt.Executable>  (1) 
rbdock ($Id: //depot/dev/client3/rdock/2013.1/src/exe/rbdock.cxx#4 $)

>  <Rbt.Library>  (1) 
libRbt.so (2013.1, Build901 2013/11/27)

>  <Rbt.Parameter_File>  (1) 
/python_libraries/phenodiscovery/docking/templates/RDOCK_TETHER.conf

>  <Rbt.Receptor>  (1) 
/data/out/rdock-opt/grid/rdock-grid.prm

>  <SCORE>  (1) 
-2.59487

>  <SCORE.INTER>  (1) 
-2.69163

>  <SCORE.INTER.CONST>  (1) 
1

>  <SCORE.INTER.POLAR>  (1) 
0

>  <SCORE.INTER.REPUL>  (1) 
0

>  <SCORE.INTER.ROT>  (1) 
1

>  <SCORE.INTER.VDW>  (1) 
-9.09163

>  <SCORE.INTER.norm>  (1) 
-0.168227

>  <SCORE.INTRA>  (1) 
0.0967646

>  <SCORE.INTRA.DIHEDRAL>  (1) 
2.29591

>  <SCORE.INTRA.DIHEDRAL.0>  (1) 
6.65316

>  <SCORE.INTRA.POLAR>  (1) 
0

>  <SCORE.INTRA.POLAR.0>  (1) 
0

>  <SCORE.INTRA.REPUL>  (1) 
0

>  <SCORE.INTRA.REPUL.0>  (1) 
0

>  <SCORE.INTRA.VDW>  (1) 
-1.05119

>  <SCORE.INTRA.VDW.0>  (1) 
-0.0741169

>  <SCORE.INTRA.norm>  (1) 
0.00604779

>  <SCORE.RESTR>  (1) 
0

>  <SCORE.RESTR.CAVITY>  (1) 
0

>  <SCORE.RESTR.norm>  (1) 
0

>  <SCORE.SYSTEM>  (1) 
0

>  <SCORE.SYSTEM.CONST>  (1) 
0

>  <SCORE.SYSTEM.DIHEDRAL>  (1) 
0

>  <SCORE.SYSTEM.norm>  (1) 
0

>  <SCORE.heavy>  (1) 
16

>  <SCORE.norm>  (1) 
-0.162179

>  <TETHERED ATOMS>  (1) 
10,11,12,13,15,16,1,2,4,5,6,7

>  <skeledock_score>  (1) 
60

$$$$
