F95
     RDKit          3D

 27 27  0  0  0  0  0  0  0  0999 V2000
  -18.1286   14.2370   24.2628 C   0  0  0  0  0  0  0  0  0  0  0  0
  -18.5180   14.0382   25.6897 C   0  0  0  0  0  0  0  0  0  0  0  0
  -17.6703   14.2399   26.5998 O   0  0  0  0  0  0  0  0  0  0  0  0
  -19.8468   13.6167   26.0184 N   0  0  0  0  0  0  0  0  0  0  0  0
  -20.1856   13.1654   27.3682 C   0  0  0  0  0  0  0  0  0  0  0  0
  -20.2064   14.3125   28.3465 C   0  0  0  0  0  0  0  0  0  0  0  0
  -20.8693   15.5080   28.0259 C   0  0  0  0  0  0  0  0  0  0  0  0
  -20.8379   16.5914   28.9090 C   0  0  0  0  0  0  0  0  0  0  0  0
  -20.1546   16.4899   30.1276 C   0  0  0  0  0  0  0  0  0  0  0  0
  -19.4851   15.3023   30.4477 C   0  0  0  0  0  0  0  0  0  0  0  0
  -19.5038   14.2229   29.5598 C   0  0  0  0  0  0  0  0  0  0  0  0
  -20.1067   17.8596   31.2333 S   0  0  0  0  0  0  0  0  0  0  0  0
  -21.2982   18.7452   30.9984 O   0  0  0  0  0  0  0  0  0  0  0  0
  -20.1451   17.3688   32.6534 O   0  0  0  0  0  0  0  0  0  0  0  0
  -18.6565   18.7639   30.9751 N   0  0  0  0  0  0  0  0  0  0  0  0
  -18.7741   15.0166   23.8072 H   0  0  0  0  0  0  0  0  0  0  0  0
  -18.2580   13.2850   23.7072 H   0  0  0  0  0  0  0  0  0  0  0  0
  -17.0678   14.5577   24.1864 H   0  0  0  0  0  0  0  0  0  0  0  0
  -20.5632   13.5913   25.2571 H   0  0  0  0  0  0  0  0  0  0  0  0
  -21.1949   12.7002   27.3534 H   0  0  0  0  0  0  0  0  0  0  0  0
  -19.4559   12.3888   27.6854 H   0  0  0  0  0  0  0  0  0  0  0  0
  -21.4007   15.6085   27.0878 H   0  0  0  0  0  0  0  0  0  0  0  0
  -21.3461   17.5089   28.6410 H   0  0  0  0  0  0  0  0  0  0  0  0
  -18.9371   15.2155   31.3772 H   0  0  0  0  0  0  0  0  0  0  0  0
  -18.9643   13.3189   29.8142 H   0  0  0  0  0  0  0  0  0  0  0  0
  -18.8981   19.5502   30.3314 H   0  0  0  0  0  0  0  0  0  0  0  0
  -18.3980   19.1936   31.8915 H   0  0  0  0  0  0  0  0  0  0  0  0
  1  2  1  0
  2  3  2  0
  2  4  1  0
  4  5  1  0
  5  6  1  0
  6  7  2  0
  7  8  1  0
  8  9  2  0
  9 10  1  0
 10 11  2  0
  9 12  1  0
 12 13  2  0
 12 14  2  0
 12 15  1  0
  6 11  1  0
  1 16  1  0
  1 17  1  0
  1 18  1  0
  4 19  1  0
  5 20  1  0
  5 21  1  0
  7 22  1  0
  8 23  1  0
 10 24  1  0
 11 25  1  0
 15 26  1  0
 15 27  1  0
M  END
>  <CHROM.1>  (1) 
71.53730960,46.73519883,25.20931732,96.00738550,1.20491066,0.32294487,-1.84730198

>  <Name>  (1) 
F95

>  <RI>  (1) 
1.80724e+07

>  <Rbt.Current_Directory>  (1) 
/data/out

>  <Rbt.Executable>  (1) 
rbdock ($Id: //depot/dev/client3/rdock/2013.1/src/exe/rbdock.cxx#4 $)

>  <Rbt.Library>  (1) 
libRbt.so (2013.1, Build901 2013/11/27)

>  <Rbt.Parameter_File>  (1) 
/python_libraries/phenodiscovery/docking/templates/RDOCK_TETHER.conf

>  <Rbt.Receptor>  (1) 
/data/out/rdock-opt/grid/rdock-grid.prm

>  <SCORE>  (1) 
-0.098284

>  <SCORE.INTER>  (1) 
-0.446716

>  <SCORE.INTER.CONST>  (1) 
1

>  <SCORE.INTER.POLAR>  (1) 
-0.514619

>  <SCORE.INTER.REPUL>  (1) 
0

>  <SCORE.INTER.ROT>  (1) 
4

>  <SCORE.INTER.VDW>  (1) 
-8.09701

>  <SCORE.INTER.norm>  (1) 
-0.0297811

>  <SCORE.INTRA>  (1) 
0.348432

>  <SCORE.INTRA.DIHEDRAL>  (1) 
1.35947

>  <SCORE.INTRA.DIHEDRAL.0>  (1) 
3.11687

>  <SCORE.INTRA.POLAR>  (1) 
0

>  <SCORE.INTRA.POLAR.0>  (1) 
0

>  <SCORE.INTRA.REPUL>  (1) 
0

>  <SCORE.INTRA.REPUL.0>  (1) 
0

>  <SCORE.INTRA.VDW>  (1) 
-0.331301

>  <SCORE.INTRA.VDW.0>  (1) 
-1.47262

>  <SCORE.INTRA.norm>  (1) 
0.0232288

>  <SCORE.RESTR>  (1) 
0

>  <SCORE.RESTR.CAVITY>  (1) 
0

>  <SCORE.RESTR.norm>  (1) 
0

>  <SCORE.SYSTEM>  (1) 
0

>  <SCORE.SYSTEM.CONST>  (1) 
0

>  <SCORE.SYSTEM.DIHEDRAL>  (1) 
0

>  <SCORE.SYSTEM.norm>  (1) 
0

>  <SCORE.heavy>  (1) 
15

>  <SCORE.norm>  (1) 
-0.00655227

>  <TETHERED ATOMS>  (1) 
5,1,6,2,4,3,9,11,7,10,8

>  <skeledock_score>  (1) 
73

$$$$
