F229
     RDKit          3D

 27 28  0  0  0  0  0  0  0  0999 V2000
  -18.0246   13.0148   23.7150 C   0  0  0  0  0  0  0  0  0  0  0  0
  -19.1191   12.6303   24.6560 C   0  0  0  0  0  0  0  0  0  0  0  0
  -20.0778   11.7281   24.3689 N   0  0  0  0  0  0  0  0  0  0  0  0
  -20.8868   11.6592   25.4152 N   0  0  0  0  0  0  0  0  0  0  0  0
  -20.4687   12.5057   26.3739 C   0  0  0  0  0  0  0  0  0  0  0  0
  -19.3277   13.1366   25.9261 C   0  0  0  0  0  0  0  0  0  0  0  0
  -18.5611   14.2211   26.6222 C   0  0  0  0  0  0  0  0  0  0  0  0
  -18.4984   13.9640   28.0614 N   0  0  0  0  0  0  0  0  0  0  0  0
  -19.3845   14.5802   29.0156 C   0  0  0  0  0  0  0  0  0  0  0  0
  -20.6428   15.0895   28.6342 C   0  0  0  0  0  0  0  0  0  0  0  0
  -21.4757   15.6971   29.5790 C   0  0  0  0  0  0  0  0  0  0  0  0
  -21.0666   15.8035   30.9096 C   0  0  0  0  0  0  0  0  0  0  0  0
  -19.8253   15.2987   31.3002 C   0  0  0  0  0  0  0  0  0  0  0  0
  -18.9875   14.6879   30.3622 C   0  0  0  0  0  0  0  0  0  0  0  0
  -17.7842   14.2093   30.7680 F   0  0  0  0  0  0  0  0  0  0  0  0
  -17.0401   12.7866   24.1740 H   0  0  0  0  0  0  0  0  0  0  0  0
  -18.1193   12.4492   22.7643 H   0  0  0  0  0  0  0  0  0  0  0  0
  -18.0846   14.1014   23.4958 H   0  0  0  0  0  0  0  0  0  0  0  0
  -21.7272   11.0424   25.4668 H   0  0  0  0  0  0  0  0  0  0  0  0
  -20.9665   12.6589   27.3225 H   0  0  0  0  0  0  0  0  0  0  0  0
  -17.5312   14.2643   26.2067 H   0  0  0  0  0  0  0  0  0  0  0  0
  -19.0610   15.1959   26.4389 H   0  0  0  0  0  0  0  0  0  0  0  0
  -17.7519   13.3252   28.4205 H   0  0  0  0  0  0  0  0  0  0  0  0
  -20.9871   15.0227   27.6113 H   0  0  0  0  0  0  0  0  0  0  0  0
  -22.4396   16.0870   29.2782 H   0  0  0  0  0  0  0  0  0  0  0  0
  -21.7127   16.2755   31.6384 H   0  0  0  0  0  0  0  0  0  0  0  0
  -19.5117   15.3814   32.3330 H   0  0  0  0  0  0  0  0  0  0  0  0
  1  2  1  0
  2  3  2  0
  3  4  1  0
  4  5  1  0
  5  6  2  0
  6  7  1  0
  7  8  1  0
  8  9  1  0
  9 10  2  0
 10 11  1  0
 11 12  2  0
 12 13  1  0
 13 14  2  0
 14 15  1  0
  6  2  1  0
  9 14  1  0
  1 16  1  0
  1 17  1  0
  1 18  1  0
  4 19  1  0
  5 20  1  0
  7 21  1  0
  7 22  1  0
  8 23  1  0
 10 24  1  0
 11 25  1  0
 12 26  1  0
 13 27  1  0
M  END
>  <CHROM.1>  (1) 
-146.55543887,-98.02632615,22.73495264,-1.85129043,0.35549330,-1.89981921

>  <Name>  (1) 
F229

>  <RI>  (1) 
3.3547e+07

>  <Rbt.Current_Directory>  (1) 
/data/out

>  <Rbt.Executable>  (1) 
rbdock ($Id: //depot/dev/client3/rdock/2013.1/src/exe/rbdock.cxx#4 $)

>  <Rbt.Library>  (1) 
libRbt.so (2013.1, Build901 2013/11/27)

>  <Rbt.Parameter_File>  (1) 
/python_libraries/phenodiscovery/docking/templates/RDOCK_TETHER.conf

>  <Rbt.Receptor>  (1) 
/data/out/rdock-opt/grid/rdock-grid.prm

>  <SCORE>  (1) 
-2.16806

>  <SCORE.INTER>  (1) 
-3.58033

>  <SCORE.INTER.CONST>  (1) 
1

>  <SCORE.INTER.POLAR>  (1) 
-0.745651

>  <SCORE.INTER.REPUL>  (1) 
0

>  <SCORE.INTER.ROT>  (1) 
3

>  <SCORE.INTER.VDW>  (1) 
-9.44512

>  <SCORE.INTER.norm>  (1) 
-0.238689

>  <SCORE.INTRA>  (1) 
1.41227

>  <SCORE.INTRA.DIHEDRAL>  (1) 
1.60486

>  <SCORE.INTRA.DIHEDRAL.0>  (1) 
3.99215

>  <SCORE.INTRA.POLAR>  (1) 
0

>  <SCORE.INTRA.POLAR.0>  (1) 
0

>  <SCORE.INTRA.REPUL>  (1) 
0

>  <SCORE.INTRA.REPUL.0>  (1) 
0

>  <SCORE.INTRA.VDW>  (1) 
0.609843

>  <SCORE.INTRA.VDW.0>  (1) 
-1.12152

>  <SCORE.INTRA.norm>  (1) 
0.0941516

>  <SCORE.RESTR>  (1) 
0

>  <SCORE.RESTR.CAVITY>  (1) 
0

>  <SCORE.RESTR.norm>  (1) 
0

>  <SCORE.SYSTEM>  (1) 
0

>  <SCORE.SYSTEM.CONST>  (1) 
0

>  <SCORE.SYSTEM.DIHEDRAL>  (1) 
0

>  <SCORE.SYSTEM.norm>  (1) 
0

>  <SCORE.heavy>  (1) 
15

>  <SCORE.norm>  (1) 
-0.144537

>  <TETHERED ATOMS>  (1) 
9,14,13,12,10,11,2,6,7,8

>  <skeledock_score>  (1) 
45

$$$$
