F558
     RDKit          3D

 32 33  0  0  0  0  0  0  0  0999 V2000
  -20.9571   15.0183   35.6219 C   0  0  0  0  0  0  0  0  0  0  0  0
  -21.3612   15.6271   34.4013 O   0  0  0  0  0  0  0  0  0  0  0  0
  -20.8132   15.2732   33.1652 C   0  0  0  0  0  0  0  0  0  0  0  0
  -19.9241   14.3804   33.0957 O   0  0  0  0  0  0  0  0  0  0  0  0
  -21.3066   15.9065   31.9771 N   0  0  0  0  0  0  0  0  0  0  0  0
  -20.7122   15.7642   30.6753 C   0  0  0  0  0  0  0  0  0  0  0  0
  -19.3354   15.5247   30.5185 C   0  0  0  0  0  0  0  0  0  0  0  0
  -18.7783   15.4137   29.2414 C   0  0  0  0  0  0  0  0  0  0  0  0
  -19.5862   15.5443   28.1015 C   0  0  0  0  0  0  0  0  0  0  0  0
  -18.9946   15.3920   26.7247 C   0  0  0  0  0  0  0  0  0  0  0  0
  -19.4343   14.1047   26.0811 C   0  0  0  0  0  0  0  0  0  0  0  0
  -20.3505   14.1213   25.0184 C   0  0  0  0  0  0  0  0  0  0  0  0
  -20.7367   12.9180   24.4236 C   0  0  0  0  0  0  0  0  0  0  0  0
  -20.2226   11.7411   24.8694 N   0  0  0  0  0  0  0  0  0  0  0  0
  -19.3294   11.6960   25.8933 C   0  0  0  0  0  0  0  0  0  0  0  0
  -18.9177   12.8756   26.5178 C   0  0  0  0  0  0  0  0  0  0  0  0
  -20.9536   15.8186   28.2566 C   0  0  0  0  0  0  0  0  0  0  0  0
  -21.5095   15.9335   29.5338 C   0  0  0  0  0  0  0  0  0  0  0  0
  -21.5305   15.4653   36.4597 H   0  0  0  0  0  0  0  0  0  0  0  0
  -21.1605   13.9270   35.5882 H   0  0  0  0  0  0  0  0  0  0  0  0
  -19.8737   15.1928   35.7934 H   0  0  0  0  0  0  0  0  0  0  0  0
  -22.2050   16.4344   32.0557 H   0  0  0  0  0  0  0  0  0  0  0  0
  -18.6840   15.4501   31.3788 H   0  0  0  0  0  0  0  0  0  0  0  0
  -17.7162   15.2263   29.1430 H   0  0  0  0  0  0  0  0  0  0  0  0
  -17.8865   15.4327   26.8086 H   0  0  0  0  0  0  0  0  0  0  0  0
  -19.2907   16.2407   26.0703 H   0  0  0  0  0  0  0  0  0  0  0  0
  -20.7593   15.0560   24.6550 H   0  0  0  0  0  0  0  0  0  0  0  0
  -21.4442   12.9200   23.6053 H   0  0  0  0  0  0  0  0  0  0  0  0
  -18.9384   10.7430   26.2236 H   0  0  0  0  0  0  0  0  0  0  0  0
  -18.2063   12.8287   27.3328 H   0  0  0  0  0  0  0  0  0  0  0  0
  -21.5890   15.9363   27.3873 H   0  0  0  0  0  0  0  0  0  0  0  0
  -22.5672   16.1421   29.6352 H   0  0  0  0  0  0  0  0  0  0  0  0
  1  2  1  0
  2  3  1  0
  3  4  2  0
  3  5  1  0
  5  6  1  0
  6  7  2  0
  7  8  1  0
  8  9  2  0
  9 10  1  0
 10 11  1  0
 11 12  2  0
 12 13  1  0
 13 14  2  0
 14 15  1  0
 15 16  2  0
  9 17  1  0
 17 18  2  0
  6 18  1  0
 11 16  1  0
  1 19  1  0
  1 20  1  0
  1 21  1  0
  5 22  1  0
  7 23  1  0
  8 24  1  0
 10 25  1  0
 10 26  1  0
 12 27  1  0
 13 28  1  0
 15 29  1  0
 16 30  1  0
 17 31  1  0
 18 32  1  0
M  END
>  <CHROM.1>  (1) 
0.10133300,-29.22980105,108.29450807,108.22814155,-1.95182946,0.85559305
-1.92027998

>  <Name>  (1) 
F558

>  <RI>  (1) 
1.04088e+07

>  <Rbt.Current_Directory>  (1) 
/data/out

>  <Rbt.Executable>  (1) 
rbdock ($Id: //depot/dev/client3/rdock/2013.1/src/exe/rbdock.cxx#4 $)

>  <Rbt.Library>  (1) 
libRbt.so (2013.1, Build901 2013/11/27)

>  <Rbt.Parameter_File>  (1) 
/python_libraries/phenodiscovery/docking/templates/RDOCK_TETHER.conf

>  <Rbt.Receptor>  (1) 
/data/out/rdock-opt/grid/rdock-grid.prm

>  <SCORE>  (1) 
-0.110618

>  <SCORE.INTER>  (1) 
-0.413617

>  <SCORE.INTER.CONST>  (1) 
1

>  <SCORE.INTER.POLAR>  (1) 
0

>  <SCORE.INTER.REPUL>  (1) 
0.000856519

>  <SCORE.INTER.ROT>  (1) 
4

>  <SCORE.INTER.VDW>  (1) 
-9.8179

>  <SCORE.INTER.norm>  (1) 
-0.0229787

>  <SCORE.INTRA>  (1) 
0.302999

>  <SCORE.INTRA.DIHEDRAL>  (1) 
-1.17279

>  <SCORE.INTRA.DIHEDRAL.0>  (1) 
4.88421

>  <SCORE.INTRA.POLAR>  (1) 
0

>  <SCORE.INTRA.POLAR.0>  (1) 
0

>  <SCORE.INTRA.REPUL>  (1) 
0

>  <SCORE.INTRA.REPUL.0>  (1) 
0

>  <SCORE.INTRA.VDW>  (1) 
0.889396

>  <SCORE.INTRA.VDW.0>  (1) 
-1.23009

>  <SCORE.INTRA.norm>  (1) 
0.0168333

>  <SCORE.RESTR>  (1) 
0

>  <SCORE.RESTR.CAVITY>  (1) 
0

>  <SCORE.RESTR.norm>  (1) 
0

>  <SCORE.SYSTEM>  (1) 
0

>  <SCORE.SYSTEM.CONST>  (1) 
0

>  <SCORE.SYSTEM.DIHEDRAL>  (1) 
0

>  <SCORE.SYSTEM.norm>  (1) 
0

>  <SCORE.heavy>  (1) 
18

>  <SCORE.norm>  (1) 
-0.00614544

>  <TETHERED ATOMS>  (1) 
6,7,8,9,10,17,18,11,16,15

>  <skeledock_score>  (1) 
38

$$$$
