F467
     RDKit          3D

 23 23  0  0  0  0  0  0  0  0999 V2000
  -18.1163   12.7551   27.5247 C   0  0  0  0  0  0  0  0  0  0  0  0
  -18.8935   13.9765   27.2947 N   0  0  0  0  0  0  0  0  0  0  0  0
  -19.2015   14.3885   25.9165 C   0  0  0  0  0  0  0  0  0  0  0  0
  -20.5736   13.8636   25.4884 C   0  0  0  0  0  0  0  0  0  0  0  0
  -20.6217   12.4694   25.6197 O   0  0  0  0  0  0  0  0  0  0  0  0
  -19.3031   14.7559   28.4373 C   0  0  0  0  0  0  0  0  0  0  0  0
  -18.8419   14.4571   29.7328 C   0  0  0  0  0  0  0  0  0  0  0  0
  -19.2155   15.2743   30.8017 C   0  0  0  0  0  0  0  0  0  0  0  0
  -20.0303   16.3838   30.5780 C   0  0  0  0  0  0  0  0  0  0  0  0
  -20.4606   16.6625   29.2805 C   0  0  0  0  0  0  0  0  0  0  0  0
  -20.0881   15.8556   28.2519 N   0  0  0  0  0  0  0  0  0  0  0  0
  -17.9480   12.1997   26.5774 H   0  0  0  0  0  0  0  0  0  0  0  0
  -17.1298   13.0124   27.9646 H   0  0  0  0  0  0  0  0  0  0  0  0
  -18.6663   12.0870   28.2206 H   0  0  0  0  0  0  0  0  0  0  0  0
  -18.4515   13.9980   25.1989 H   0  0  0  0  0  0  0  0  0  0  0  0
  -19.1846   15.4980   25.8495 H   0  0  0  0  0  0  0  0  0  0  0  0
  -21.3533   14.3075   26.1432 H   0  0  0  0  0  0  0  0  0  0  0  0
  -20.8007   14.1569   24.4389 H   0  0  0  0  0  0  0  0  0  0  0  0
  -21.5655   12.2022   25.4652 H   0  0  0  0  0  0  0  0  0  0  0  0
  -18.1681   13.6316   29.9162 H   0  0  0  0  0  0  0  0  0  0  0  0
  -18.8614   15.0553   31.8008 H   0  0  0  0  0  0  0  0  0  0  0  0
  -20.3205   17.0246   31.4005 H   0  0  0  0  0  0  0  0  0  0  0  0
  -21.0878   17.5230   29.0895 H   0  0  0  0  0  0  0  0  0  0  0  0
  1  2  1  0
  2  3  1  0
  3  4  1  0
  4  5  1  0
  2  6  1  0
  6  7  2  0
  7  8  1  0
  8  9  2  0
  9 10  1  0
 10 11  2  0
  6 11  1  0
  1 12  1  0
  1 13  1  0
  1 14  1  0
  3 15  1  0
  3 16  1  0
  4 17  1  0
  4 18  1  0
  5 19  1  0
  7 20  1  0
  8 21  1  0
  9 22  1  0
 10 23  1  0
M  END
>  <CHROM.1>  (1) 
94.20336278,-56.71559063,171.50328495,7.62141065,-1.42209583,0.92224216,-2.21099488

>  <Name>  (1) 
F467

>  <RI>  (1) 
2.30777e+07

>  <Rbt.Current_Directory>  (1) 
/data/out

>  <Rbt.Executable>  (1) 
rbdock ($Id: //depot/dev/client3/rdock/2013.1/src/exe/rbdock.cxx#4 $)

>  <Rbt.Library>  (1) 
libRbt.so (2013.1, Build901 2013/11/27)

>  <Rbt.Parameter_File>  (1) 
/python_libraries/phenodiscovery/docking/templates/RDOCK_TETHER.conf

>  <Rbt.Receptor>  (1) 
/data/out/rdock-opt/grid/rdock-grid.prm

>  <SCORE>  (1) 
-2.25649

>  <SCORE.INTER>  (1) 
-0.483766

>  <SCORE.INTER.CONST>  (1) 
1

>  <SCORE.INTER.POLAR>  (1) 
-0.870258

>  <SCORE.INTER.REPUL>  (1) 
0

>  <SCORE.INTER.ROT>  (1) 
3

>  <SCORE.INTER.VDW>  (1) 
-5.92489

>  <SCORE.INTER.norm>  (1) 
-0.0439787

>  <SCORE.INTRA>  (1) 
-1.77273

>  <SCORE.INTRA.DIHEDRAL>  (1) 
-5.27603

>  <SCORE.INTRA.DIHEDRAL.0>  (1) 
8.06425

>  <SCORE.INTRA.POLAR>  (1) 
0

>  <SCORE.INTRA.POLAR.0>  (1) 
0

>  <SCORE.INTRA.REPUL>  (1) 
0

>  <SCORE.INTRA.REPUL.0>  (1) 
0

>  <SCORE.INTRA.VDW>  (1) 
0.865289

>  <SCORE.INTRA.VDW.0>  (1) 
0.220396

>  <SCORE.INTRA.norm>  (1) 
-0.161157

>  <SCORE.RESTR>  (1) 
0

>  <SCORE.RESTR.CAVITY>  (1) 
0

>  <SCORE.RESTR.norm>  (1) 
0

>  <SCORE.SYSTEM>  (1) 
0

>  <SCORE.SYSTEM.CONST>  (1) 
0

>  <SCORE.SYSTEM.DIHEDRAL>  (1) 
0

>  <SCORE.SYSTEM.norm>  (1) 
0

>  <SCORE.heavy>  (1) 
11

>  <SCORE.norm>  (1) 
-0.205136

>  <TETHERED ATOMS>  (1) 
7,8,9,10,2,3,4,5,6,11

>  <skeledock_score>  (1) 
53

$$$$
