F14
     RDKit          3D

 19 19  0  0  0  0  0  0  0  0999 V2000
  -21.7046   13.4269   30.5246 Br  0  0  0  0  0  0  0  0  0  0  0  0
  -20.5203   14.0715   29.1771 C   0  0  0  0  0  0  0  0  0  0  0  0
  -20.7077   14.0318   27.8142 C   0  0  0  0  0  0  0  0  0  0  0  0
  -19.6346   14.6009   27.2340 N   0  0  0  0  0  0  0  0  0  0  0  0
  -19.4573   14.8413   25.8059 C   0  0  0  0  0  0  0  0  0  0  0  0
  -18.0751   14.3594   25.3635 C   0  0  0  0  0  0  0  0  0  0  0  0
  -17.8802   14.6202   23.9873 O   0  0  0  0  0  0  0  0  0  0  0  0
  -16.6030   14.1818   23.5788 C   0  0  0  0  0  0  0  0  0  0  0  0
  -18.7827   15.0139   28.1606 N   0  0  0  0  0  0  0  0  0  0  0  0
  -19.3020   14.6932   29.3620 C   0  0  0  0  0  0  0  0  0  0  0  0
  -21.5659   13.6347   27.2875 H   0  0  0  0  0  0  0  0  0  0  0  0
  -20.2462   14.2990   25.2424 H   0  0  0  0  0  0  0  0  0  0  0  0
  -19.5635   15.9266   25.5880 H   0  0  0  0  0  0  0  0  0  0  0  0
  -17.3088   14.9318   25.9285 H   0  0  0  0  0  0  0  0  0  0  0  0
  -17.9331   13.2870   25.6409 H   0  0  0  0  0  0  0  0  0  0  0  0
  -16.4510   13.1020   23.7985 H   0  0  0  0  0  0  0  0  0  0  0  0
  -15.8052   14.7911   24.0578 H   0  0  0  0  0  0  0  0  0  0  0  0
  -16.5167   14.3170   22.4812 H   0  0  0  0  0  0  0  0  0  0  0  0
  -18.8277   14.9071   30.3103 H   0  0  0  0  0  0  0  0  0  0  0  0
  1  2  1  0
  2  3  2  0
  3  4  1  0
  4  5  1  0
  5  6  1  0
  6  7  1  0
  7  8  1  0
  4  9  1  0
  9 10  2  0
 10  2  1  0
  3 11  1  0
  5 12  1  0
  5 13  1  0
  6 14  1  0
  6 15  1  0
  8 16  1  0
  8 17  1  0
  8 18  1  0
 10 19  1  0
M  END
>  <CHROM.1>  (1) 
-132.27680176,-178.46741297,179.72736744,2.01513799,0.19288260,1.54430822

>  <Name>  (1) 
F14

>  <RI>  (1) 
1.49336e+07

>  <Rbt.Current_Directory>  (1) 
/data/out

>  <Rbt.Executable>  (1) 
rbdock ($Id: //depot/dev/client3/rdock/2013.1/src/exe/rbdock.cxx#4 $)

>  <Rbt.Library>  (1) 
libRbt.so (2013.1, Build901 2013/11/27)

>  <Rbt.Parameter_File>  (1) 
/python_libraries/phenodiscovery/docking/templates/RDOCK_TETHER.conf

>  <Rbt.Receptor>  (1) 
/data/out/rdock-opt/grid/rdock-grid.prm

>  <SCORE>  (1) 
0.771409

>  <SCORE.INTER>  (1) 
2.9131

>  <SCORE.INTER.CONST>  (1) 
1

>  <SCORE.INTER.POLAR>  (1) 
0

>  <SCORE.INTER.REPUL>  (1) 
0

>  <SCORE.INTER.ROT>  (1) 
3

>  <SCORE.INTER.VDW>  (1) 
-5.4869

>  <SCORE.INTER.norm>  (1) 
0.29131

>  <SCORE.INTRA>  (1) 
-2.1417

>  <SCORE.INTRA.DIHEDRAL>  (1) 
-4.58517

>  <SCORE.INTRA.DIHEDRAL.0>  (1) 
7.21272

>  <SCORE.INTRA.POLAR>  (1) 
0

>  <SCORE.INTRA.POLAR.0>  (1) 
0

>  <SCORE.INTRA.REPUL>  (1) 
0

>  <SCORE.INTRA.REPUL.0>  (1) 
0

>  <SCORE.INTRA.VDW>  (1) 
0.150887

>  <SCORE.INTRA.VDW.0>  (1) 
0.537637

>  <SCORE.INTRA.norm>  (1) 
-0.21417

>  <SCORE.RESTR>  (1) 
0

>  <SCORE.RESTR.CAVITY>  (1) 
0

>  <SCORE.RESTR.norm>  (1) 
0

>  <SCORE.SYSTEM>  (1) 
0

>  <SCORE.SYSTEM.CONST>  (1) 
0

>  <SCORE.SYSTEM.DIHEDRAL>  (1) 
0

>  <SCORE.SYSTEM.norm>  (1) 
0

>  <SCORE.heavy>  (1) 
10

>  <SCORE.norm>  (1) 
0.0771409

>  <TETHERED ATOMS>  (1) 
2,3,4,5,6,7,10

>  <skeledock_score>  (1) 
27

$$$$
