F374
     RDKit          3D

 18 18  0  0  0  0  0  0  0  0999 V2000
  -18.5449   13.5754   24.7526 C   0  0  0  0  0  0  0  0  0  0  0  0
  -19.9529   13.7389   25.3144 C   0  0  0  0  0  0  0  0  0  0  0  0
  -19.9313   14.4556   26.5897 N   0  0  0  0  0  0  0  0  0  0  0  0
  -19.5678   13.7874   27.8063 C   0  0  0  0  0  0  0  0  0  0  0  0
  -19.3454   12.5462   27.7987 O   0  0  0  0  0  0  0  0  0  0  0  0
  -19.4039   14.5312   29.0663 C   0  0  0  0  0  0  0  0  0  0  0  0
  -19.3147   14.0263   30.3476 C   0  0  0  0  0  0  0  0  0  0  0  0
  -19.2134   15.0858   31.1653 N   0  0  0  0  0  0  0  0  0  0  0  0
  -19.2390   16.1825   30.4262 N   0  0  0  0  0  0  0  0  0  0  0  0
  -19.3533   15.8754   29.1424 N   0  0  0  0  0  0  0  0  0  0  0  0
  -18.5891   13.0269   23.7881 H   0  0  0  0  0  0  0  0  0  0  0  0
  -18.0857   14.5714   24.5773 H   0  0  0  0  0  0  0  0  0  0  0  0
  -17.9143   13.0001   25.4634 H   0  0  0  0  0  0  0  0  0  0  0  0
  -20.3974   12.7309   25.4632 H   0  0  0  0  0  0  0  0  0  0  0  0
  -20.5758   14.3003   24.5852 H   0  0  0  0  0  0  0  0  0  0  0  0
  -20.1265   15.4819   26.6072 H   0  0  0  0  0  0  0  0  0  0  0  0
  -19.3237   12.9929   30.6666 H   0  0  0  0  0  0  0  0  0  0  0  0
  -19.1295   15.0690   32.2055 H   0  0  0  0  0  0  0  0  0  0  0  0
  1  2  1  0
  2  3  1  0
  3  4  1  0
  4  5  2  0
  4  6  1  0
  6  7  2  0
  7  8  1  0
  8  9  1  0
  9 10  2  0
 10  6  1  0
  1 11  1  0
  1 12  1  0
  1 13  1  0
  2 14  1  0
  2 15  1  0
  3 16  1  0
  7 17  1  0
  8 18  1  0
M  END
>  <CHROM.1>  (1) 
-78.69289656,166.39185141,2.42749988,1.54243949,-2.71911241

>  <Name>  (1) 
F374

>  <RI>  (1) 
3.45617e+07

>  <Rbt.Current_Directory>  (1) 
/data/out

>  <Rbt.Executable>  (1) 
rbdock ($Id: //depot/dev/client3/rdock/2013.1/src/exe/rbdock.cxx#4 $)

>  <Rbt.Library>  (1) 
libRbt.so (2013.1, Build901 2013/11/27)

>  <Rbt.Parameter_File>  (1) 
/python_libraries/phenodiscovery/docking/templates/RDOCK_TETHER.conf

>  <Rbt.Receptor>  (1) 
/data/out/rdock-opt/grid/rdock-grid.prm

>  <SCORE>  (1) 
2.05888

>  <SCORE.INTER>  (1) 
2.01163

>  <SCORE.INTER.CONST>  (1) 
1

>  <SCORE.INTER.POLAR>  (1) 
0

>  <SCORE.INTER.REPUL>  (1) 
0

>  <SCORE.INTER.ROT>  (1) 
2

>  <SCORE.INTER.VDW>  (1) 
-5.38837

>  <SCORE.INTER.norm>  (1) 
0.201163

>  <SCORE.INTRA>  (1) 
0.0472504

>  <SCORE.INTRA.DIHEDRAL>  (1) 
0.063955

>  <SCORE.INTRA.DIHEDRAL.0>  (1) 
1.66945

>  <SCORE.INTRA.POLAR>  (1) 
0

>  <SCORE.INTRA.POLAR.0>  (1) 
0

>  <SCORE.INTRA.REPUL>  (1) 
0

>  <SCORE.INTRA.REPUL.0>  (1) 
0

>  <SCORE.INTRA.VDW>  (1) 
0.0152729

>  <SCORE.INTRA.VDW.0>  (1) 
-0.983834

>  <SCORE.INTRA.norm>  (1) 
0.00472504

>  <SCORE.RESTR>  (1) 
0

>  <SCORE.RESTR.CAVITY>  (1) 
0

>  <SCORE.RESTR.norm>  (1) 
0

>  <SCORE.SYSTEM>  (1) 
0

>  <SCORE.SYSTEM.CONST>  (1) 
0

>  <SCORE.SYSTEM.DIHEDRAL>  (1) 
0

>  <SCORE.SYSTEM.norm>  (1) 
0

>  <SCORE.heavy>  (1) 
10

>  <SCORE.norm>  (1) 
0.205888

>  <TETHERED ATOMS>  (1) 
1,2,3,4,6,10,9,8,7

>  <skeledock_score>  (1) 
46

$$$$
