F393
     RDKit          3D

 24 24  0  0  0  0  0  0  0  0999 V2000
  -20.9384   12.8981   24.8881 C   0  0  0  0  0  0  0  0  0  0  0  0
  -20.0431   14.1260   24.7813 C   0  0  0  0  0  0  0  0  0  0  0  0
  -19.4714   14.4565   26.0459 O   0  0  0  0  0  0  0  0  0  0  0  0
  -20.2145   14.9369   27.1324 C   0  0  0  0  0  0  0  0  0  0  0  0
  -21.4409   15.1998   26.9909 O   0  0  0  0  0  0  0  0  0  0  0  0
  -19.5698   15.1608   28.4007 N   0  0  0  0  0  0  0  0  0  0  0  0
  -20.3640   15.5468   29.5736 C   0  0  0  0  0  0  0  0  0  0  0  0
  -19.4940   16.3179   30.5704 C   0  0  0  0  0  0  0  0  0  0  0  0
  -18.3074   15.6048   30.8582 O   0  0  0  0  0  0  0  0  0  0  0  0
  -17.5086   15.5264   29.6940 C   0  0  0  0  0  0  0  0  0  0  0  0
  -18.1979   14.6858   28.6148 C   0  0  0  0  0  0  0  0  0  0  0  0
  -20.3627   12.0453   25.3060 H   0  0  0  0  0  0  0  0  0  0  0  0
  -21.8095   13.1050   25.5434 H   0  0  0  0  0  0  0  0  0  0  0  0
  -21.3115   12.6201   23.8799 H   0  0  0  0  0  0  0  0  0  0  0  0
  -19.2194   13.9011   24.0717 H   0  0  0  0  0  0  0  0  0  0  0  0
  -20.6165   14.9897   24.3799 H   0  0  0  0  0  0  0  0  0  0  0  0
  -20.7654   14.6312   30.0594 H   0  0  0  0  0  0  0  0  0  0  0  0
  -21.2163   16.1961   29.2783 H   0  0  0  0  0  0  0  0  0  0  0  0
  -19.2685   17.3382   30.1836 H   0  0  0  0  0  0  0  0  0  0  0  0
  -20.0650   16.4485   31.5138 H   0  0  0  0  0  0  0  0  0  0  0  0
  -17.2660   16.5409   29.3020 H   0  0  0  0  0  0  0  0  0  0  0  0
  -16.5446   15.0433   29.9593 H   0  0  0  0  0  0  0  0  0  0  0  0
  -17.6019   14.7616   27.6800 H   0  0  0  0  0  0  0  0  0  0  0  0
  -18.2265   13.6213   28.9331 H   0  0  0  0  0  0  0  0  0  0  0  0
  1  2  1  0
  2  3  1  0
  3  4  1  0
  4  5  2  0
  4  6  1  0
  6  7  1  0
  7  8  1  0
  8  9  1  0
  9 10  1  0
 10 11  1  0
 11  6  1  0
  1 12  1  0
  1 13  1  0
  1 14  1  0
  2 15  1  0
  2 16  1  0
  7 17  1  0
  7 18  1  0
  8 19  1  0
  8 20  1  0
 10 21  1  0
 10 22  1  0
 11 23  1  0
 11 24  1  0
M  END
>  <CHROM.1>  (1) 
-68.12752714,-5.65981359,1.87255626,0.10372082,-2.01845742

>  <Name>  (1) 
F393

>  <RI>  (1) 
2.18285e+07

>  <Rbt.Current_Directory>  (1) 
/data/out

>  <Rbt.Executable>  (1) 
rbdock ($Id: //depot/dev/client3/rdock/2013.1/src/exe/rbdock.cxx#4 $)

>  <Rbt.Library>  (1) 
libRbt.so (2013.1, Build901 2013/11/27)

>  <Rbt.Parameter_File>  (1) 
/python_libraries/phenodiscovery/docking/templates/RDOCK_TETHER.conf

>  <Rbt.Receptor>  (1) 
/data/out/rdock-opt/grid/rdock-grid.prm

>  <SCORE>  (1) 
-0.607746

>  <SCORE.INTER>  (1) 
-0.415243

>  <SCORE.INTER.CONST>  (1) 
1

>  <SCORE.INTER.POLAR>  (1) 
0

>  <SCORE.INTER.REPUL>  (1) 
0

>  <SCORE.INTER.ROT>  (1) 
2

>  <SCORE.INTER.VDW>  (1) 
-7.81524

>  <SCORE.INTER.norm>  (1) 
-0.0377494

>  <SCORE.INTRA>  (1) 
-0.192503

>  <SCORE.INTRA.DIHEDRAL>  (1) 
-0.406754

>  <SCORE.INTRA.DIHEDRAL.0>  (1) 
0.821054

>  <SCORE.INTRA.POLAR>  (1) 
0

>  <SCORE.INTRA.POLAR.0>  (1) 
0

>  <SCORE.INTRA.REPUL>  (1) 
0

>  <SCORE.INTRA.REPUL.0>  (1) 
0

>  <SCORE.INTRA.VDW>  (1) 
0.010874

>  <SCORE.INTRA.VDW.0>  (1) 
-0.610797

>  <SCORE.INTRA.norm>  (1) 
-0.0175003

>  <SCORE.RESTR>  (1) 
0

>  <SCORE.RESTR.CAVITY>  (1) 
0

>  <SCORE.RESTR.norm>  (1) 
0

>  <SCORE.SYSTEM>  (1) 
0

>  <SCORE.SYSTEM.CONST>  (1) 
0

>  <SCORE.SYSTEM.DIHEDRAL>  (1) 
0

>  <SCORE.SYSTEM.norm>  (1) 
0

>  <SCORE.heavy>  (1) 
11

>  <SCORE.norm>  (1) 
-0.0552497

>  <TETHERED ATOMS>  (1) 
1,2,4,11,7,10,8

>  <skeledock_score>  (1) 
36

$$$$
