F96
     RDKit          3D

 19 19  0  0  0  0  0  0  0  0999 V2000
  -16.5903   13.5485   23.3790 C   0  0  0  0  0  0  0  0  0  0  0  0
  -17.8205   13.7307   24.2046 C   0  0  0  0  0  0  0  0  0  0  0  0
  -18.3992   14.8509   24.2244 O   0  0  0  0  0  0  0  0  0  0  0  0
  -18.3392   12.6314   24.9646 N   0  0  0  0  0  0  0  0  0  0  0  0
  -19.5814   12.7235   25.7256 C   0  0  0  0  0  0  0  0  0  0  0  0
  -19.3749   13.5512   26.9541 C   0  0  0  0  0  0  0  0  0  0  0  0
  -18.3016   13.5057   27.8204 C   0  0  0  0  0  0  0  0  0  0  0  0
  -18.4868   14.4168   28.7952 N   0  0  0  0  0  0  0  0  0  0  0  0
  -19.6391   15.0281   28.5660 N   0  0  0  0  0  0  0  0  0  0  0  0
  -20.2064   14.5292   27.4539 C   0  0  0  0  0  0  0  0  0  0  0  0
  -16.7645   12.7529   22.6249 H   0  0  0  0  0  0  0  0  0  0  0  0
  -16.3274   14.4914   22.8537 H   0  0  0  0  0  0  0  0  0  0  0  0
  -15.7441   13.2530   24.0335 H   0  0  0  0  0  0  0  0  0  0  0  0
  -17.8009   11.7360   24.9926 H   0  0  0  0  0  0  0  0  0  0  0  0
  -20.3688   13.1972   25.1011 H   0  0  0  0  0  0  0  0  0  0  0  0
  -19.9285   11.7032   25.9974 H   0  0  0  0  0  0  0  0  0  0  0  0
  -17.4397   12.8559   27.7461 H   0  0  0  0  0  0  0  0  0  0  0  0
  -20.0319   15.7849   29.1681 H   0  0  0  0  0  0  0  0  0  0  0  0
  -21.1514   14.8556   27.0398 H   0  0  0  0  0  0  0  0  0  0  0  0
  1  2  1  0
  2  3  2  0
  2  4  1  0
  4  5  1  0
  5  6  1  0
  6  7  1  0
  7  8  2  0
  8  9  1  0
  9 10  1  0
  6 10  2  0
  1 11  1  0
  1 12  1  0
  1 13  1  0
  4 14  1  0
  5 15  1  0
  5 16  1  0
  7 17  1  0
  9 18  1  0
 10 19  1  0
M  END
>  <CHROM.1>  (1) 
-73.56154889,-43.09556580,-1.17298909,0.30806308,1.16648481

>  <Name>  (1) 
F96

>  <RI>  (1) 
2.234e+07

>  <Rbt.Current_Directory>  (1) 
/data/out

>  <Rbt.Executable>  (1) 
rbdock ($Id: //depot/dev/client3/rdock/2013.1/src/exe/rbdock.cxx#4 $)

>  <Rbt.Library>  (1) 
libRbt.so (2013.1, Build901 2013/11/27)

>  <Rbt.Parameter_File>  (1) 
/python_libraries/phenodiscovery/docking/templates/RDOCK_TETHER.conf

>  <Rbt.Receptor>  (1) 
/data/out/rdock-opt/grid/rdock-grid.prm

>  <SCORE>  (1) 
-4.13885

>  <SCORE.INTER>  (1) 
-4.11704

>  <SCORE.INTER.CONST>  (1) 
1

>  <SCORE.INTER.POLAR>  (1) 
-0.467753

>  <SCORE.INTER.REPUL>  (1) 
0

>  <SCORE.INTER.ROT>  (1) 
2

>  <SCORE.INTER.VDW>  (1) 
-9.92668

>  <SCORE.INTER.norm>  (1) 
-0.411704

>  <SCORE.INTRA>  (1) 
-0.0218063

>  <SCORE.INTRA.DIHEDRAL>  (1) 
-0.074111

>  <SCORE.INTRA.DIHEDRAL.0>  (1) 
2.56994

>  <SCORE.INTRA.POLAR>  (1) 
0

>  <SCORE.INTRA.POLAR.0>  (1) 
0

>  <SCORE.INTRA.REPUL>  (1) 
0

>  <SCORE.INTRA.REPUL.0>  (1) 
0

>  <SCORE.INTRA.VDW>  (1) 
0.0152492

>  <SCORE.INTRA.VDW.0>  (1) 
-1.44333

>  <SCORE.INTRA.norm>  (1) 
-0.00218063

>  <SCORE.RESTR>  (1) 
0

>  <SCORE.RESTR.CAVITY>  (1) 
0

>  <SCORE.RESTR.norm>  (1) 
0

>  <SCORE.SYSTEM>  (1) 
0

>  <SCORE.SYSTEM.CONST>  (1) 
0

>  <SCORE.SYSTEM.DIHEDRAL>  (1) 
0

>  <SCORE.SYSTEM.norm>  (1) 
0

>  <SCORE.heavy>  (1) 
10

>  <SCORE.norm>  (1) 
-0.413885

>  <TETHERED ATOMS>  (1) 
2,4,5,6,1,10,9,8,7

>  <skeledock_score>  (1) 
42

$$$$
