F369
     RDKit          3D

 32 33  0  0  0  0  0  0  0  0999 V2000
  -15.5059   12.1066   21.1626 C   0  0  0  0  0  0  0  0  0  0  0  0
  -15.5955   10.7623   21.8769 C   0  0  0  0  0  0  0  0  0  0  0  0
  -16.4795   10.8523   23.0360 N   0  0  0  0  0  0  0  0  0  0  0  0
  -16.5700   11.8951   23.8849 C   0  0  0  0  0  0  0  0  0  0  0  0
  -17.5074   11.5661   24.8405 C   0  0  0  0  0  0  0  0  0  0  0  0
  -18.0071   12.3883   25.9019 N   0  0  0  0  0  0  0  0  0  0  0  0
  -17.6939   13.7832   26.0358 C   0  0  0  0  0  0  0  0  0  0  0  0
  -16.6439   14.2456   25.5110 O   0  0  0  0  0  0  0  0  0  0  0  0
  -18.6569   14.7116   26.7371 C   0  0  0  0  0  0  0  0  0  0  0  0
  -20.0837   14.6069   26.2117 C   0  0  0  0  0  0  0  0  0  0  0  0
  -20.9760   15.0890   27.3497 C   0  0  0  0  0  0  0  0  0  0  0  0
  -20.1322   15.0459   28.6233 C   0  0  0  0  0  0  0  0  0  0  0  0
  -18.7886   14.4480   28.2331 C   0  0  0  0  0  0  0  0  0  0  0  0
  -17.9674   10.3099   24.5041 C   0  0  0  0  0  0  0  0  0  0  0  0
  -17.3152    9.8903   23.4016 N   0  0  0  0  0  0  0  0  0  0  0  0
  -15.0624   12.8721   21.8337 H   0  0  0  0  0  0  0  0  0  0  0  0
  -16.5180   12.4382   20.8472 H   0  0  0  0  0  0  0  0  0  0  0  0
  -14.8637   12.0082   20.2622 H   0  0  0  0  0  0  0  0  0  0  0  0
  -14.5831   10.4418   22.2047 H   0  0  0  0  0  0  0  0  0  0  0  0
  -15.9859   10.0026   21.1652 H   0  0  0  0  0  0  0  0  0  0  0  0
  -16.0152   12.8194   23.7920 H   0  0  0  0  0  0  0  0  0  0  0  0
  -18.6620   11.9458   26.5840 H   0  0  0  0  0  0  0  0  0  0  0  0
  -18.2992   15.7558   26.5917 H   0  0  0  0  0  0  0  0  0  0  0  0
  -20.3328   13.5479   25.9742 H   0  0  0  0  0  0  0  0  0  0  0  0
  -20.2271   15.2314   25.3030 H   0  0  0  0  0  0  0  0  0  0  0  0
  -21.8699   14.4346   27.4460 H   0  0  0  0  0  0  0  0  0  0  0  0
  -21.3149   16.1302   27.1543 H   0  0  0  0  0  0  0  0  0  0  0  0
  -20.6234   14.4321   29.4095 H   0  0  0  0  0  0  0  0  0  0  0  0
  -19.9844   16.0774   29.0126 H   0  0  0  0  0  0  0  0  0  0  0  0
  -18.8076   13.3534   28.4367 H   0  0  0  0  0  0  0  0  0  0  0  0
  -17.9557   14.9153   28.8025 H   0  0  0  0  0  0  0  0  0  0  0  0
  -18.7291    9.7409   25.0203 H   0  0  0  0  0  0  0  0  0  0  0  0
  1  2  1  0
  2  3  1  0
  3  4  1  0
  4  5  2  0
  5  6  1  0
  6  7  1  0
  7  8  2  0
  7  9  1  0
  9 10  1  0
 10 11  1  0
 11 12  1  0
 12 13  1  0
  5 14  1  0
 14 15  2  0
 15  3  1  0
 13  9  1  0
  1 16  1  0
  1 17  1  0
  1 18  1  0
  2 19  1  0
  2 20  1  0
  4 21  1  0
  6 22  1  0
  9 23  1  0
 10 24  1  0
 10 25  1  0
 11 26  1  0
 11 27  1  0
 12 28  1  0
 12 29  1  0
 13 30  1  0
 13 31  1  0
 14 32  1  0
M  END
>  <CHROM.1>  (1) 
-38.67534120,7.41085063,-50.94149157,0.89522409,0.45305904,-1.99415738

>  <Name>  (1) 
F369

>  <RI>  (1) 
9.13854e+06

>  <Rbt.Current_Directory>  (1) 
/data/out

>  <Rbt.Executable>  (1) 
rbdock ($Id: //depot/dev/client3/rdock/2013.1/src/exe/rbdock.cxx#4 $)

>  <Rbt.Library>  (1) 
libRbt.so (2013.1, Build901 2013/11/27)

>  <Rbt.Parameter_File>  (1) 
/python_libraries/phenodiscovery/docking/templates/RDOCK_TETHER.conf

>  <Rbt.Receptor>  (1) 
/data/out/rdock-opt/grid/rdock-grid.prm

>  <SCORE>  (1) 
0.0573795

>  <SCORE.INTER>  (1) 
-0.9598

>  <SCORE.INTER.CONST>  (1) 
1

>  <SCORE.INTER.POLAR>  (1) 
0

>  <SCORE.INTER.REPUL>  (1) 
0.0419341

>  <SCORE.INTER.ROT>  (1) 
3

>  <SCORE.INTER.VDW>  (1) 
-9.56947

>  <SCORE.INTER.norm>  (1) 
-0.0639867

>  <SCORE.INTRA>  (1) 
0.982904

>  <SCORE.INTRA.DIHEDRAL>  (1) 
-3.36077

>  <SCORE.INTRA.DIHEDRAL.0>  (1) 
7.9127

>  <SCORE.INTRA.POLAR>  (1) 
0

>  <SCORE.INTRA.POLAR.0>  (1) 
0

>  <SCORE.INTRA.REPUL>  (1) 
0

>  <SCORE.INTRA.REPUL.0>  (1) 
0

>  <SCORE.INTRA.VDW>  (1) 
2.66329

>  <SCORE.INTRA.VDW.0>  (1) 
-2.07404

>  <SCORE.INTRA.norm>  (1) 
0.0655269

>  <SCORE.RESTR>  (1) 
0.0342751

>  <SCORE.RESTR.CAVITY>  (1) 
0.0342751

>  <SCORE.RESTR.norm>  (1) 
0.00228501

>  <SCORE.SYSTEM>  (1) 
0

>  <SCORE.SYSTEM.CONST>  (1) 
0

>  <SCORE.SYSTEM.DIHEDRAL>  (1) 
0

>  <SCORE.SYSTEM.norm>  (1) 
0

>  <SCORE.heavy>  (1) 
15

>  <SCORE.norm>  (1) 
0.0038253

>  <TETHERED ATOMS>  (1) 
5,6,7,9,13,12,4,11,10

>  <skeledock_score>  (1) 
34

$$$$
