F217
     RDKit          3D

 28 29  0  0  0  0  0  0  0  0999 V2000
  -20.4407   15.1172   25.0081 C   0  0  0  0  0  0  0  0  0  0  0  0
  -20.3633   15.1782   26.5009 C   0  0  0  0  0  0  0  0  0  0  0  0
  -21.2978   15.8165   27.2539 N   0  0  0  0  0  0  0  0  0  0  0  0
  -20.8457   15.6418   28.5091 C   0  0  0  0  0  0  0  0  0  0  0  0
  -21.4230   16.1037   29.6895 C   0  0  0  0  0  0  0  0  0  0  0  0
  -20.7627   15.8151   30.8985 C   0  0  0  0  0  0  0  0  0  0  0  0
  -19.5534   15.0834   30.8965 C   0  0  0  0  0  0  0  0  0  0  0  0
  -18.9962   14.6300   29.6862 C   0  0  0  0  0  0  0  0  0  0  0  0
  -19.6818   14.9284   28.5063 C   0  0  0  0  0  0  0  0  0  0  0  0
  -19.3674   14.6149   27.2378 N   0  0  0  0  0  0  0  0  0  0  0  0
  -18.1862   13.8937   26.7572 C   0  0  0  0  0  0  0  0  0  0  0  0
  -18.4231   12.3810   26.8153 C   0  0  0  0  0  0  0  0  0  0  0  0
  -19.7269   11.9682   26.1878 C   0  0  0  0  0  0  0  0  0  0  0  0
  -19.7554   11.3812   25.0720 O   0  0  0  0  0  0  0  0  0  0  0  0
  -20.9520   12.2454   26.8645 N   0  0  0  0  0  0  0  0  0  0  0  0
  -20.5206   14.0601   24.6801 H   0  0  0  0  0  0  0  0  0  0  0  0
  -19.5314   15.5745   24.5662 H   0  0  0  0  0  0  0  0  0  0  0  0
  -21.3324   15.6714   24.6465 H   0  0  0  0  0  0  0  0  0  0  0  0
  -22.3462   16.6685   29.6784 H   0  0  0  0  0  0  0  0  0  0  0  0
  -21.1819   16.1590   31.8351 H   0  0  0  0  0  0  0  0  0  0  0  0
  -19.0521   14.8708   31.8317 H   0  0  0  0  0  0  0  0  0  0  0  0
  -18.0691   14.0728   29.6796 H   0  0  0  0  0  0  0  0  0  0  0  0
  -17.9598   14.2022   25.7137 H   0  0  0  0  0  0  0  0  0  0  0  0
  -17.3039   14.1602   27.3782 H   0  0  0  0  0  0  0  0  0  0  0  0
  -17.5954   11.8608   26.2875 H   0  0  0  0  0  0  0  0  0  0  0  0
  -18.4201   12.0516   27.8764 H   0  0  0  0  0  0  0  0  0  0  0  0
  -21.8642   11.9650   26.4409 H   0  0  0  0  0  0  0  0  0  0  0  0
  -20.9502   12.7309   27.7890 H   0  0  0  0  0  0  0  0  0  0  0  0
  1  2  1  0
  2  3  2  0
  3  4  1  0
  4  5  2  0
  5  6  1  0
  6  7  2  0
  7  8  1  0
  8  9  2  0
  9 10  1  0
 10 11  1  0
 11 12  1  0
 12 13  1  0
 13 14  2  0
 13 15  1  0
 10  2  1  0
  4  9  1  0
  1 16  1  0
  1 17  1  0
  1 18  1  0
  5 19  1  0
  6 20  1  0
  7 21  1  0
  8 22  1  0
 11 23  1  0
 11 24  1  0
 12 25  1  0
 12 26  1  0
 15 27  1  0
 15 28  1  0
M  END
>  <CHROM.1>  (1) 
-97.86233325,49.34096598,106.84998060,1.99413117,-0.61935713,1.16760187

>  <Name>  (1) 
F217

>  <RI>  (1) 
3.6152e+07

>  <Rbt.Current_Directory>  (1) 
/data/out

>  <Rbt.Executable>  (1) 
rbdock ($Id: //depot/dev/client3/rdock/2013.1/src/exe/rbdock.cxx#4 $)

>  <Rbt.Library>  (1) 
libRbt.so (2013.1, Build901 2013/11/27)

>  <Rbt.Parameter_File>  (1) 
/python_libraries/phenodiscovery/docking/templates/RDOCK_TETHER.conf

>  <Rbt.Receptor>  (1) 
/data/out/rdock-opt/grid/rdock-grid.prm

>  <SCORE>  (1) 
-2.59341

>  <SCORE.INTER>  (1) 
-1.66555

>  <SCORE.INTER.CONST>  (1) 
1

>  <SCORE.INTER.POLAR>  (1) 
-0.87178

>  <SCORE.INTER.REPUL>  (1) 
0

>  <SCORE.INTER.ROT>  (1) 
3

>  <SCORE.INTER.VDW>  (1) 
-7.1015

>  <SCORE.INTER.norm>  (1) 
-0.111037

>  <SCORE.INTRA>  (1) 
-0.927863

>  <SCORE.INTRA.DIHEDRAL>  (1) 
0.168788

>  <SCORE.INTRA.DIHEDRAL.0>  (1) 
3.72264

>  <SCORE.INTRA.POLAR>  (1) 
0

>  <SCORE.INTRA.POLAR.0>  (1) 
0

>  <SCORE.INTRA.REPUL>  (1) 
0

>  <SCORE.INTRA.REPUL.0>  (1) 
0

>  <SCORE.INTRA.VDW>  (1) 
-1.01226

>  <SCORE.INTRA.VDW.0>  (1) 
-1.15872

>  <SCORE.INTRA.norm>  (1) 
-0.0618575

>  <SCORE.RESTR>  (1) 
0

>  <SCORE.RESTR.CAVITY>  (1) 
0

>  <SCORE.RESTR.norm>  (1) 
0

>  <SCORE.SYSTEM>  (1) 
0

>  <SCORE.SYSTEM.CONST>  (1) 
0

>  <SCORE.SYSTEM.DIHEDRAL>  (1) 
0

>  <SCORE.SYSTEM.norm>  (1) 
0

>  <SCORE.heavy>  (1) 
15

>  <SCORE.norm>  (1) 
-0.172894

>  <TETHERED ATOMS>  (1) 
4,5,6,7,8,9,10,11,12,13

>  <skeledock_score>  (1) 
50

$$$$
