F503
     RDKit          3D

 29 30  0  0  0  0  0  0  0  0999 V2000
  -20.8977   10.5929   24.7365 C   0  0  0  0  0  0  0  0  0  0  0  0
  -20.6691   11.5075   25.8474 N   0  0  0  0  0  0  0  0  0  0  0  0
  -19.5160   12.3557   25.9017 C   0  0  0  0  0  0  0  0  0  0  0  0
  -18.6758   12.3495   24.9624 O   0  0  0  0  0  0  0  0  0  0  0  0
  -19.2822   13.2316   27.0976 C   0  0  0  0  0  0  0  0  0  0  0  0
  -20.4850   13.6876   27.9440 C   0  0  0  0  0  0  0  0  0  0  0  0
  -20.1119   14.7707   28.9294 C   0  0  0  0  0  0  0  0  0  0  0  0
  -19.7666   14.4318   30.2500 C   0  0  0  0  0  0  0  0  0  0  0  0
  -19.3905   15.4243   31.1601 C   0  0  0  0  0  0  0  0  0  0  0  0
  -19.3598   16.7630   30.7641 C   0  0  0  0  0  0  0  0  0  0  0  0
  -19.6991   17.1115   29.4554 C   0  0  0  0  0  0  0  0  0  0  0  0
  -20.0661   16.1231   28.5365 C   0  0  0  0  0  0  0  0  0  0  0  0
  -20.3567   16.4869   27.2631 F   0  0  0  0  0  0  0  0  0  0  0  0
  -18.0531   14.1330   27.0514 C   0  0  0  0  0  0  0  0  0  0  0  0
  -18.0351   12.8720   27.9017 C   0  0  0  0  0  0  0  0  0  0  0  0
  -21.8419   10.0315   24.8985 H   0  0  0  0  0  0  0  0  0  0  0  0
  -20.0578    9.8700   24.6659 H   0  0  0  0  0  0  0  0  0  0  0  0
  -20.9775   11.1649   23.7883 H   0  0  0  0  0  0  0  0  0  0  0  0
  -21.3634   11.5359   26.6276 H   0  0  0  0  0  0  0  0  0  0  0  0
  -21.2708   14.0524   27.2473 H   0  0  0  0  0  0  0  0  0  0  0  0
  -20.9284   12.8353   28.5042 H   0  0  0  0  0  0  0  0  0  0  0  0
  -19.7865   13.3996   30.5768 H   0  0  0  0  0  0  0  0  0  0  0  0
  -19.1259   15.1551   32.1745 H   0  0  0  0  0  0  0  0  0  0  0  0
  -19.0711   17.5300   31.4711 H   0  0  0  0  0  0  0  0  0  0  0  0
  -19.6674   18.1495   29.1498 H   0  0  0  0  0  0  0  0  0  0  0  0
  -17.4309   14.0574   26.1337 H   0  0  0  0  0  0  0  0  0  0  0  0
  -18.0971   15.0633   27.6562 H   0  0  0  0  0  0  0  0  0  0  0  0
  -17.3830   12.0755   27.4825 H   0  0  0  0  0  0  0  0  0  0  0  0
  -18.0766   13.0784   28.9929 H   0  0  0  0  0  0  0  0  0  0  0  0
  1  2  1  0
  2  3  1  0
  3  4  2  0
  3  5  1  0
  5  6  1  0
  6  7  1  0
  7  8  2  0
  8  9  1  0
  9 10  2  0
 10 11  1  0
 11 12  2  0
 12 13  1  0
  5 14  1  0
 14 15  1  0
 15  5  1  0
  7 12  1  0
  1 16  1  0
  1 17  1  0
  1 18  1  0
  2 19  1  0
  6 20  1  0
  6 21  1  0
  8 22  1  0
  9 23  1  0
 10 24  1  0
 11 25  1  0
 14 26  1  0
 14 27  1  0
 15 28  1  0
 15 29  1  0
M  END
>  <CHROM.1>  (1) 
-26.10121184,-168.62924760,-94.57235579,0.59850535,-1.47340728,3.07429761

>  <Name>  (1) 
F503

>  <RI>  (1) 
2.62264e+07

>  <Rbt.Current_Directory>  (1) 
/data/out

>  <Rbt.Executable>  (1) 
rbdock ($Id: //depot/dev/client3/rdock/2013.1/src/exe/rbdock.cxx#4 $)

>  <Rbt.Library>  (1) 
libRbt.so (2013.1, Build901 2013/11/27)

>  <Rbt.Parameter_File>  (1) 
/python_libraries/phenodiscovery/docking/templates/RDOCK_TETHER.conf

>  <Rbt.Receptor>  (1) 
/data/out/rdock-opt/grid/rdock-grid.prm

>  <SCORE>  (1) 
5.47826

>  <SCORE.INTER>  (1) 
0.62253

>  <SCORE.INTER.CONST>  (1) 
1

>  <SCORE.INTER.POLAR>  (1) 
-0.365596

>  <SCORE.INTER.REPUL>  (1) 
0.00199248

>  <SCORE.INTER.ROT>  (1) 
3

>  <SCORE.INTER.VDW>  (1) 
-6.54441

>  <SCORE.INTER.norm>  (1) 
0.041502

>  <SCORE.INTRA>  (1) 
4.85573

>  <SCORE.INTRA.DIHEDRAL>  (1) 
0.453935

>  <SCORE.INTRA.DIHEDRAL.0>  (1) 
4.61442

>  <SCORE.INTRA.POLAR>  (1) 
0

>  <SCORE.INTRA.POLAR.0>  (1) 
0

>  <SCORE.INTRA.REPUL>  (1) 
0

>  <SCORE.INTRA.REPUL.0>  (1) 
0

>  <SCORE.INTRA.VDW>  (1) 
4.62876

>  <SCORE.INTRA.VDW.0>  (1) 
-2.7705

>  <SCORE.INTRA.norm>  (1) 
0.323715

>  <SCORE.RESTR>  (1) 
0

>  <SCORE.RESTR.CAVITY>  (1) 
0

>  <SCORE.RESTR.norm>  (1) 
0

>  <SCORE.SYSTEM>  (1) 
0

>  <SCORE.SYSTEM.CONST>  (1) 
0

>  <SCORE.SYSTEM.DIHEDRAL>  (1) 
0

>  <SCORE.SYSTEM.norm>  (1) 
0

>  <SCORE.heavy>  (1) 
15

>  <SCORE.norm>  (1) 
0.365217

>  <TETHERED ATOMS>  (1) 
6,7,12,11,10,8,9,3,5,4

>  <skeledock_score>  (1) 
55

$$$$
