F488
     RDKit          3D

 38 39  0  0  0  0  0  0  0  0999 V2000
  -15.4096   12.4508   21.2565 C   0  0  0  0  0  0  0  0  0  0  0  0
  -16.4023   12.7609   22.2961 N   0  0  0  0  0  0  0  0  0  0  0  0
  -16.0467   14.0168   22.9988 C   0  0  0  0  0  0  0  0  0  0  0  0
  -16.6518   14.1253   24.4168 C   0  0  0  0  0  0  0  0  0  0  0  0
  -17.8256   13.2554   24.5753 N   0  0  0  0  0  0  0  0  0  0  0  0
  -17.7809   11.8692   24.0941 C   0  0  0  0  0  0  0  0  0  0  0  0
  -16.5441   11.6320   23.2289 C   0  0  0  0  0  0  0  0  0  0  0  0
  -19.0016   13.7122   25.2676 C   0  0  0  0  0  0  0  0  0  0  0  0
  -20.1414   13.3435   24.8749 O   0  0  0  0  0  0  0  0  0  0  0  0
  -18.9093   14.5752   26.4925 C   0  0  0  0  0  0  0  0  0  0  0  0
  -19.3612   13.8504   27.6351 O   0  0  0  0  0  0  0  0  0  0  0  0
  -19.6110   14.4030   28.9021 C   0  0  0  0  0  0  0  0  0  0  0  0
  -20.6757   15.2907   29.1504 C   0  0  0  0  0  0  0  0  0  0  0  0
  -20.8898   15.7920   30.4385 C   0  0  0  0  0  0  0  0  0  0  0  0
  -20.0491   15.4139   31.4954 C   0  0  0  0  0  0  0  0  0  0  0  0
  -20.2528   15.9877   32.8662 C   0  0  0  0  0  0  0  0  0  0  0  0
  -18.9743   14.5498   31.2430 C   0  0  0  0  0  0  0  0  0  0  0  0
  -18.7667   14.0409   29.9579 C   0  0  0  0  0  0  0  0  0  0  0  0
  -14.4199   12.2095   21.7049 H   0  0  0  0  0  0  0  0  0  0  0  0
  -15.7525   11.5859   20.6491 H   0  0  0  0  0  0  0  0  0  0  0  0
  -15.2952   13.3148   20.5665 H   0  0  0  0  0  0  0  0  0  0  0  0
  -16.4193   14.8688   22.3897 H   0  0  0  0  0  0  0  0  0  0  0  0
  -14.9418   14.1332   23.0870 H   0  0  0  0  0  0  0  0  0  0  0  0
  -16.9120   15.1877   24.6152 H   0  0  0  0  0  0  0  0  0  0  0  0
  -15.8848   13.8191   25.1608 H   0  0  0  0  0  0  0  0  0  0  0  0
  -17.7762   11.1716   24.9593 H   0  0  0  0  0  0  0  0  0  0  0  0
  -18.6832   11.6637   23.4774 H   0  0  0  0  0  0  0  0  0  0  0  0
  -15.6388   11.5332   23.8710 H   0  0  0  0  0  0  0  0  0  0  0  0
  -16.6831   10.6771   22.6744 H   0  0  0  0  0  0  0  0  0  0  0  0
  -17.8882   14.9694   26.6692 H   0  0  0  0  0  0  0  0  0  0  0  0
  -19.5755   15.4512   26.3482 H   0  0  0  0  0  0  0  0  0  0  0  0
  -21.3458   15.5975   28.3614 H   0  0  0  0  0  0  0  0  0  0  0  0
  -21.7102   16.4781   30.6101 H   0  0  0  0  0  0  0  0  0  0  0  0
  -19.6807   16.9344   32.9587 H   0  0  0  0  0  0  0  0  0  0  0  0
  -21.3289   16.1953   33.0479 H   0  0  0  0  0  0  0  0  0  0  0  0
  -19.9044   15.2761   33.6447 H   0  0  0  0  0  0  0  0  0  0  0  0
  -18.3005   14.2648   32.0417 H   0  0  0  0  0  0  0  0  0  0  0  0
  -17.9407   13.3640   29.7797 H   0  0  0  0  0  0  0  0  0  0  0  0
  1  2  1  0
  2  3  1  0
  3  4  1  0
  4  5  1  0
  5  6  1  0
  6  7  1  0
  5  8  1  0
  8  9  2  0
  8 10  1  0
 10 11  1  0
 11 12  1  0
 12 13  2  0
 13 14  1  0
 14 15  2  0
 15 16  1  0
 15 17  1  0
 17 18  2  0
  7  2  1  0
 12 18  1  0
  1 19  1  0
  1 20  1  0
  1 21  1  0
  3 22  1  0
  3 23  1  0
  4 24  1  0
  4 25  1  0
  6 26  1  0
  6 27  1  0
  7 28  1  0
  7 29  1  0
 10 30  1  0
 10 31  1  0
 13 32  1  0
 14 33  1  0
 16 34  1  0
 16 35  1  0
 16 36  1  0
 17 37  1  0
 18 38  1  0
M  END
>  <CHROM.1>  (1) 
-112.28566750,-169.42524794,68.32992007,-1.64253517,0.53736972,-1.79141797

>  <Name>  (1) 
F488

>  <RI>  (1) 
1.80231e+07

>  <Rbt.Current_Directory>  (1) 
/data/out

>  <Rbt.Executable>  (1) 
rbdock ($Id: //depot/dev/client3/rdock/2013.1/src/exe/rbdock.cxx#4 $)

>  <Rbt.Library>  (1) 
libRbt.so (2013.1, Build901 2013/11/27)

>  <Rbt.Parameter_File>  (1) 
/python_libraries/phenodiscovery/docking/templates/RDOCK_TETHER.conf

>  <Rbt.Receptor>  (1) 
/data/out/rdock-opt/grid/rdock-grid.prm

>  <SCORE>  (1) 
16.2579

>  <SCORE.INTER>  (1) 
14.1668

>  <SCORE.INTER.CONST>  (1) 
1

>  <SCORE.INTER.POLAR>  (1) 
0

>  <SCORE.INTER.REPUL>  (1) 
0.0693995

>  <SCORE.INTER.ROT>  (1) 
3

>  <SCORE.INTER.VDW>  (1) 
5.41976

>  <SCORE.INTER.norm>  (1) 
0.787042

>  <SCORE.INTRA>  (1) 
2.09113

>  <SCORE.INTRA.DIHEDRAL>  (1) 
3.74979

>  <SCORE.INTRA.DIHEDRAL.0>  (1) 
2.03077

>  <SCORE.INTRA.POLAR>  (1) 
0

>  <SCORE.INTRA.POLAR.0>  (1) 
0

>  <SCORE.INTRA.REPUL>  (1) 
0

>  <SCORE.INTRA.REPUL.0>  (1) 
0

>  <SCORE.INTRA.VDW>  (1) 
0.216235

>  <SCORE.INTRA.VDW.0>  (1) 
-0.843659

>  <SCORE.INTRA.norm>  (1) 
0.116174

>  <SCORE.RESTR>  (1) 
0

>  <SCORE.RESTR.CAVITY>  (1) 
0

>  <SCORE.RESTR.norm>  (1) 
0

>  <SCORE.SYSTEM>  (1) 
0

>  <SCORE.SYSTEM.CONST>  (1) 
0

>  <SCORE.SYSTEM.DIHEDRAL>  (1) 
0

>  <SCORE.SYSTEM.norm>  (1) 
0

>  <SCORE.heavy>  (1) 
18

>  <SCORE.norm>  (1) 
0.903216

>  <TETHERED ATOMS>  (1) 
12,13,14,15,17,18,8,10,11,9

>  <skeledock_score>  (1) 
56

$$$$
