F558
     RDKit          3D

 32 33  0  0  0  0  0  0  0  0999 V2000
  -16.8883   10.6965   22.8686 C   0  0  0  0  0  0  0  0  0  0  0  0
  -17.4152   10.8983   24.1746 O   0  0  0  0  0  0  0  0  0  0  0  0
  -17.8658   12.1424   24.6211 C   0  0  0  0  0  0  0  0  0  0  0  0
  -17.9786   13.1047   23.8125 O   0  0  0  0  0  0  0  0  0  0  0  0
  -18.1551   12.3208   26.0138 N   0  0  0  0  0  0  0  0  0  0  0  0
  -18.6616   13.5430   26.5733 C   0  0  0  0  0  0  0  0  0  0  0  0
  -18.0239   14.1058   27.6877 C   0  0  0  0  0  0  0  0  0  0  0  0
  -18.4923   15.2991   28.2439 C   0  0  0  0  0  0  0  0  0  0  0  0
  -19.6154   15.9411   27.6996 C   0  0  0  0  0  0  0  0  0  0  0  0
  -20.1444   17.2084   28.3157 C   0  0  0  0  0  0  0  0  0  0  0  0
  -21.5673   17.0189   28.7706 C   0  0  0  0  0  0  0  0  0  0  0  0
  -21.9757   15.7976   29.3275 C   0  0  0  0  0  0  0  0  0  0  0  0
  -23.3016   15.6365   29.7363 C   0  0  0  0  0  0  0  0  0  0  0  0
  -24.1882   16.6571   29.5941 N   0  0  0  0  0  0  0  0  0  0  0  0
  -23.8203   17.8509   29.0577 C   0  0  0  0  0  0  0  0  0  0  0  0
  -22.5042   18.0547   28.6359 C   0  0  0  0  0  0  0  0  0  0  0  0
  -20.2788   15.3582   26.6088 C   0  0  0  0  0  0  0  0  0  0  0  0
  -19.8078   14.1667   26.0507 C   0  0  0  0  0  0  0  0  0  0  0  0
  -16.6017    9.6313   22.7517 H   0  0  0  0  0  0  0  0  0  0  0  0
  -15.9883   11.3299   22.7194 H   0  0  0  0  0  0  0  0  0  0  0  0
  -17.6554   10.9488   22.1060 H   0  0  0  0  0  0  0  0  0  0  0  0
  -17.8450   11.5670   26.6679 H   0  0  0  0  0  0  0  0  0  0  0  0
  -17.1526   13.6261   28.1157 H   0  0  0  0  0  0  0  0  0  0  0  0
  -17.9810   15.7205   29.1005 H   0  0  0  0  0  0  0  0  0  0  0  0
  -20.0780   18.0298   27.5687 H   0  0  0  0  0  0  0  0  0  0  0  0
  -19.5176   17.5203   29.1797 H   0  0  0  0  0  0  0  0  0  0  0  0
  -21.2748   14.9804   29.4440 H   0  0  0  0  0  0  0  0  0  0  0  0
  -23.6261   14.6986   30.1669 H   0  0  0  0  0  0  0  0  0  0  0  0
  -24.5506   18.6427   28.9571 H   0  0  0  0  0  0  0  0  0  0  0  0
  -22.2215   19.0072   28.2051 H   0  0  0  0  0  0  0  0  0  0  0  0
  -21.1656   15.8238   26.1964 H   0  0  0  0  0  0  0  0  0  0  0  0
  -20.3509   13.7239   25.2264 H   0  0  0  0  0  0  0  0  0  0  0  0
  1  2  1  0
  2  3  1  0
  3  4  2  0
  3  5  1  0
  5  6  1  0
  6  7  2  0
  7  8  1  0
  8  9  2  0
  9 10  1  0
 10 11  1  0
 11 12  2  0
 12 13  1  0
 13 14  2  0
 14 15  1  0
 15 16  2  0
  9 17  1  0
 17 18  2  0
  6 18  1  0
 11 16  1  0
  1 19  1  0
  1 20  1  0
  1 21  1  0
  5 22  1  0
  7 23  1  0
  8 24  1  0
 10 25  1  0
 10 26  1  0
 12 27  1  0
 13 28  1  0
 15 29  1  0
 16 30  1  0
 17 31  1  0
 18 32  1  0
M  END
>  <CHROM.1>  (1) 
9.13515060,-129.19258089,-120.02548929,37.16780727,1.15812502,0.61979225
-2.25182654

>  <Name>  (1) 
F558

>  <RI>  (1) 
1.07401e+07

>  <Rbt.Current_Directory>  (1) 
/data/out

>  <Rbt.Executable>  (1) 
rbdock ($Id: //depot/dev/client3/rdock/2013.1/src/exe/rbdock.cxx#4 $)

>  <Rbt.Library>  (1) 
libRbt.so (2013.1, Build901 2013/11/27)

>  <Rbt.Parameter_File>  (1) 
/python_libraries/phenodiscovery/docking/templates/RDOCK_TETHER.conf

>  <Rbt.Receptor>  (1) 
/data/out/rdock-opt/grid/rdock-grid.prm

>  <SCORE>  (1) 
2.63132

>  <SCORE.INTER>  (1) 
0.992005

>  <SCORE.INTER.CONST>  (1) 
1

>  <SCORE.INTER.POLAR>  (1) 
0

>  <SCORE.INTER.REPUL>  (1) 
0.00125468

>  <SCORE.INTER.ROT>  (1) 
4

>  <SCORE.INTER.VDW>  (1) 
-8.41427

>  <SCORE.INTER.norm>  (1) 
0.0551114

>  <SCORE.INTRA>  (1) 
1.63932

>  <SCORE.INTRA.DIHEDRAL>  (1) 
3.21804

>  <SCORE.INTRA.DIHEDRAL.0>  (1) 
5.78036

>  <SCORE.INTRA.POLAR>  (1) 
0

>  <SCORE.INTRA.POLAR.0>  (1) 
0

>  <SCORE.INTRA.REPUL>  (1) 
0

>  <SCORE.INTRA.REPUL.0>  (1) 
0

>  <SCORE.INTRA.VDW>  (1) 
0.0302945

>  <SCORE.INTRA.VDW.0>  (1) 
-1.39932

>  <SCORE.INTRA.norm>  (1) 
0.0910732

>  <SCORE.RESTR>  (1) 
0

>  <SCORE.RESTR.CAVITY>  (1) 
0

>  <SCORE.RESTR.norm>  (1) 
0

>  <SCORE.SYSTEM>  (1) 
0

>  <SCORE.SYSTEM.CONST>  (1) 
0

>  <SCORE.SYSTEM.DIHEDRAL>  (1) 
0

>  <SCORE.SYSTEM.norm>  (1) 
0

>  <SCORE.heavy>  (1) 
18

>  <SCORE.norm>  (1) 
0.146185

>  <TETHERED ATOMS>  (1) 
3,5,6,7,18,8,9,17,2

>  <skeledock_score>  (1) 
54

$$$$
