F616
     RDKit          3D

 26 26  0  0  0  0  0  0  0  0999 V2000
  -20.8123   13.3792   24.5358 C   0  0  0  0  0  0  0  0  0  0  0  0
  -19.6600   12.2076   25.2155 S   0  0  0  0  0  0  0  0  0  0  0  0
  -20.4119   11.1142   25.9226 O   0  0  0  0  0  0  0  0  0  0  0  0
  -18.8631   11.6071   24.0919 O   0  0  0  0  0  0  0  0  0  0  0  0
  -18.5761   13.0023   26.3162 N   0  0  0  0  0  0  0  0  0  0  0  0
  -19.3361   13.7605   27.3151 C   0  0  0  0  0  0  0  0  0  0  0  0
  -18.3944   14.4034   28.3403 C   0  0  0  0  0  0  0  0  0  0  0  0
  -19.1383   15.2601   29.3307 C   0  0  0  0  0  0  0  0  0  0  0  0
  -19.6850   16.4926   28.9364 C   0  0  0  0  0  0  0  0  0  0  0  0
  -20.3981   17.2714   29.8528 C   0  0  0  0  0  0  0  0  0  0  0  0
  -20.5735   16.8245   31.1653 C   0  0  0  0  0  0  0  0  0  0  0  0
  -21.2731   17.5770   32.0498 F   0  0  0  0  0  0  0  0  0  0  0  0
  -20.0213   15.6060   31.5678 C   0  0  0  0  0  0  0  0  0  0  0  0
  -19.2947   14.8324   30.6600 C   0  0  0  0  0  0  0  0  0  0  0  0
  -21.3925   12.8980   23.7217 H   0  0  0  0  0  0  0  0  0  0  0  0
  -20.2582   14.2493   24.1277 H   0  0  0  0  0  0  0  0  0  0  0  0
  -21.5119   13.7240   25.3242 H   0  0  0  0  0  0  0  0  0  0  0  0
  -18.0635   12.2381   26.8124 H   0  0  0  0  0  0  0  0  0  0  0  0
  -19.8987   14.5822   26.8218 H   0  0  0  0  0  0  0  0  0  0  0  0
  -20.0689   13.1013   27.8335 H   0  0  0  0  0  0  0  0  0  0  0  0
  -17.6502   15.0237   27.7941 H   0  0  0  0  0  0  0  0  0  0  0  0
  -17.8205   13.6143   28.8740 H   0  0  0  0  0  0  0  0  0  0  0  0
  -19.5710   16.8439   27.9182 H   0  0  0  0  0  0  0  0  0  0  0  0
  -20.8223   18.2174   29.5417 H   0  0  0  0  0  0  0  0  0  0  0  0
  -20.1496   15.2637   32.5866 H   0  0  0  0  0  0  0  0  0  0  0  0
  -18.8651   13.8943   30.9894 H   0  0  0  0  0  0  0  0  0  0  0  0
  1  2  1  0
  2  3  2  0
  2  4  2  0
  2  5  1  0
  5  6  1  0
  6  7  1  0
  7  8  1  0
  8  9  2  0
  9 10  1  0
 10 11  2  0
 11 12  1  0
 11 13  1  0
 13 14  2  0
  8 14  1  0
  1 15  1  0
  1 16  1  0
  1 17  1  0
  5 18  1  0
  6 19  1  0
  6 20  1  0
  7 21  1  0
  7 22  1  0
  9 23  1  0
 10 24  1  0
 13 25  1  0
 14 26  1  0
M  END
>  <CHROM.1>  (1) 
52.59884511,176.83426149,176.44996626,-71.86789382,-1.49173367,-0.74354181
0.99156005

>  <Name>  (1) 
F616

>  <RI>  (1) 
2.15991e+07

>  <Rbt.Current_Directory>  (1) 
/data/out

>  <Rbt.Executable>  (1) 
rbdock ($Id: //depot/dev/client3/rdock/2013.1/src/exe/rbdock.cxx#4 $)

>  <Rbt.Library>  (1) 
libRbt.so (2013.1, Build901 2013/11/27)

>  <Rbt.Parameter_File>  (1) 
/python_libraries/phenodiscovery/docking/templates/RDOCK_TETHER.conf

>  <Rbt.Receptor>  (1) 
/data/out/rdock-opt/grid/rdock-grid.prm

>  <SCORE>  (1) 
-1.48589

>  <SCORE.INTER>  (1) 
-1.72674

>  <SCORE.INTER.CONST>  (1) 
1

>  <SCORE.INTER.POLAR>  (1) 
-0.479908

>  <SCORE.INTER.REPUL>  (1) 
0

>  <SCORE.INTER.ROT>  (1) 
4

>  <SCORE.INTER.VDW>  (1) 
-9.49506

>  <SCORE.INTER.norm>  (1) 
-0.123339

>  <SCORE.INTRA>  (1) 
0.24085

>  <SCORE.INTRA.DIHEDRAL>  (1) 
-0.644399

>  <SCORE.INTRA.DIHEDRAL.0>  (1) 
1.57477

>  <SCORE.INTRA.POLAR>  (1) 
0

>  <SCORE.INTRA.POLAR.0>  (1) 
0

>  <SCORE.INTRA.REPUL>  (1) 
0

>  <SCORE.INTRA.REPUL.0>  (1) 
0

>  <SCORE.INTRA.VDW>  (1) 
0.563049

>  <SCORE.INTRA.VDW.0>  (1) 
-1.02657

>  <SCORE.INTRA.norm>  (1) 
0.0172036

>  <SCORE.RESTR>  (1) 
0

>  <SCORE.RESTR.CAVITY>  (1) 
0

>  <SCORE.RESTR.norm>  (1) 
0

>  <SCORE.SYSTEM>  (1) 
0

>  <SCORE.SYSTEM.CONST>  (1) 
0

>  <SCORE.SYSTEM.DIHEDRAL>  (1) 
0

>  <SCORE.SYSTEM.norm>  (1) 
0

>  <SCORE.heavy>  (1) 
14

>  <SCORE.norm>  (1) 
-0.106135

>  <TETHERED ATOMS>  (1) 
5,6,7,8,9,10,1,2,11,13

>  <skeledock_score>  (1) 
48

$$$$
