F13
     RDKit          3D

 16 16  0  0  0  0  0  0  0  0999 V2000
  -18.3065   13.0734   28.7353 Br  0  0  0  0  0  0  0  0  0  0  0  0
  -19.9603   14.0071   28.5707 C   0  0  0  0  0  0  0  0  0  0  0  0
  -21.1816   13.6375   29.0860 C   0  0  0  0  0  0  0  0  0  0  0  0
  -22.0791   14.5791   28.7396 N   0  0  0  0  0  0  0  0  0  0  0  0
  -23.4946   14.5931   29.0978 C   0  0  0  0  0  0  0  0  0  0  0  0
  -23.9467   16.0077   29.4605 C   0  0  0  0  0  0  0  0  0  0  0  0
  -23.7618   16.8780   28.3765 O   0  0  0  0  0  0  0  0  0  0  0  0
  -21.4870   15.5335   28.0382 N   0  0  0  0  0  0  0  0  0  0  0  0
  -20.1851   15.2021   27.9182 C   0  0  0  0  0  0  0  0  0  0  0  0
  -21.3981   12.7533   29.6716 H   0  0  0  0  0  0  0  0  0  0  0  0
  -24.0930   14.2289   28.2351 H   0  0  0  0  0  0  0  0  0  0  0  0
  -23.6820   13.9089   29.9545 H   0  0  0  0  0  0  0  0  0  0  0  0
  -23.3338   16.3713   30.3121 H   0  0  0  0  0  0  0  0  0  0  0  0
  -25.0114   16.0024   29.7892 H   0  0  0  0  0  0  0  0  0  0  0  0
  -22.8258   16.7569   28.0687 H   0  0  0  0  0  0  0  0  0  0  0  0
  -19.4487   15.7957   27.3935 H   0  0  0  0  0  0  0  0  0  0  0  0
  1  2  1  0
  2  3  2  0
  3  4  1  0
  4  5  1  0
  5  6  1  0
  6  7  1  0
  4  8  1  0
  8  9  2  0
  9  2  1  0
  3 10  1  0
  5 11  1  0
  5 12  1  0
  6 13  1  0
  6 14  1  0
  7 15  1  0
  9 16  1  0
M  END
>  <CHROM.1>  (1) 
139.53981895,60.13880548,-50.78410989,0.23445423,-0.40655830,2.64886937

>  <Name>  (1) 
F13

>  <RI>  (1) 
2.73405e+07

>  <Rbt.Current_Directory>  (1) 
/data/out

>  <Rbt.Executable>  (1) 
rbdock ($Id: //depot/dev/client3/rdock/2013.1/src/exe/rbdock.cxx#4 $)

>  <Rbt.Library>  (1) 
libRbt.so (2013.1, Build901 2013/11/27)

>  <Rbt.Parameter_File>  (1) 
/python_libraries/phenodiscovery/docking/templates/RDOCK_TETHER.conf

>  <Rbt.Receptor>  (1) 
/data/out/rdock-opt/grid/rdock-grid.prm

>  <SCORE>  (1) 
-5.01472

>  <SCORE.INTER>  (1) 
-1.46838

>  <SCORE.INTER.CONST>  (1) 
1

>  <SCORE.INTER.POLAR>  (1) 
0

>  <SCORE.INTER.REPUL>  (1) 
0

>  <SCORE.INTER.ROT>  (1) 
2

>  <SCORE.INTER.VDW>  (1) 
-8.86838

>  <SCORE.INTER.norm>  (1) 
-0.163154

>  <SCORE.INTRA>  (1) 
-3.54634

>  <SCORE.INTRA.DIHEDRAL>  (1) 
-2.04142

>  <SCORE.INTRA.DIHEDRAL.0>  (1) 
4.69575

>  <SCORE.INTRA.POLAR>  (1) 
-0.831523

>  <SCORE.INTRA.POLAR.0>  (1) 
0

>  <SCORE.INTRA.REPUL>  (1) 
0

>  <SCORE.INTRA.REPUL.0>  (1) 
0

>  <SCORE.INTRA.VDW>  (1) 
0.301553

>  <SCORE.INTRA.VDW.0>  (1) 
-0.683185

>  <SCORE.INTRA.norm>  (1) 
-0.394037

>  <SCORE.RESTR>  (1) 
0

>  <SCORE.RESTR.CAVITY>  (1) 
0

>  <SCORE.RESTR.norm>  (1) 
0

>  <SCORE.SYSTEM>  (1) 
0

>  <SCORE.SYSTEM.CONST>  (1) 
0

>  <SCORE.SYSTEM.DIHEDRAL>  (1) 
0

>  <SCORE.SYSTEM.norm>  (1) 
0

>  <SCORE.heavy>  (1) 
9

>  <SCORE.norm>  (1) 
-0.557191

>  <TETHERED ATOMS>  (1) 
3,4,8,6,2,9

>  <skeledock_score>  (1) 
25

$$$$
