F126
     RDKit          3D

 23 23  0  0  0  0  0  0  0  0999 V2000
  -19.6474   18.5678   31.2427 C   0  0  0  0  0  0  0  0  0  0  0  0
  -20.1514   17.2341   31.8032 C   0  0  0  0  0  0  0  0  0  0  0  0
  -21.6789   17.2317   31.9190 C   0  0  0  0  0  0  0  0  0  0  0  0
  -19.6858   16.0904   30.9432 C   0  0  0  0  0  0  0  0  0  0  0  0
  -18.6104   15.3523   31.3201 N   0  0  0  0  0  0  0  0  0  0  0  0
  -18.1756   14.3145   30.5626 C   0  0  0  0  0  0  0  0  0  0  0  0
  -18.8298   13.9868   29.3726 C   0  0  0  0  0  0  0  0  0  0  0  0
  -18.2466   12.5960   28.4629 Cl  0  0  0  0  0  0  0  0  0  0  0  0
  -19.9436   14.7646   28.9836 C   0  0  0  0  0  0  0  0  0  0  0  0
  -20.3362   15.7901   29.7874 N   0  0  0  0  0  0  0  0  0  0  0  0
  -20.7053   14.5255   27.7333 C   0  0  0  0  0  0  0  0  0  0  0  0
  -21.0740   15.4868   27.0077 O   0  0  0  0  0  0  0  0  0  0  0  0
  -21.0648   13.1960   27.3500 N   0  0  0  0  0  0  0  0  0  0  0  0
  -18.5383   18.5579   31.1753 H   0  0  0  0  0  0  0  0  0  0  0  0
  -19.9467   19.4010   31.9136 H   0  0  0  0  0  0  0  0  0  0  0  0
  -20.0671   18.7560   30.2307 H   0  0  0  0  0  0  0  0  0  0  0  0
  -19.7307   17.1125   32.8263 H   0  0  0  0  0  0  0  0  0  0  0  0
  -22.0278   16.2632   32.3374 H   0  0  0  0  0  0  0  0  0  0  0  0
  -22.0110   18.0439   32.6005 H   0  0  0  0  0  0  0  0  0  0  0  0
  -22.1517   17.3846   30.9247 H   0  0  0  0  0  0  0  0  0  0  0  0
  -17.3209   13.7381   30.8918 H   0  0  0  0  0  0  0  0  0  0  0  0
  -20.7659   12.3678   27.9109 H   0  0  0  0  0  0  0  0  0  0  0  0
  -21.6221   13.0342   26.4818 H   0  0  0  0  0  0  0  0  0  0  0  0
  1  2  1  0
  2  3  1  0
  2  4  1  0
  4  5  2  0
  5  6  1  0
  6  7  2  0
  7  8  1  0
  7  9  1  0
  9 10  2  0
  9 11  1  0
 11 12  2  0
 11 13  1  0
  4 10  1  0
  1 14  1  0
  1 15  1  0
  1 16  1  0
  2 17  1  0
  3 18  1  0
  3 19  1  0
  3 20  1  0
  6 21  1  0
 13 22  1  0
 13 23  1  0
M  END
>  <CHROM.1>  (1) 
99.86946745,-137.37233217,-2.18378901,0.76939969,-2.20339223

>  <Name>  (1) 
F126

>  <RI>  (1) 
2.55352e+07

>  <Rbt.Current_Directory>  (1) 
/data/out

>  <Rbt.Executable>  (1) 
rbdock ($Id: //depot/dev/client3/rdock/2013.1/src/exe/rbdock.cxx#4 $)

>  <Rbt.Library>  (1) 
libRbt.so (2013.1, Build901 2013/11/27)

>  <Rbt.Parameter_File>  (1) 
/python_libraries/phenodiscovery/docking/templates/RDOCK_TETHER.conf

>  <Rbt.Receptor>  (1) 
/data/out/rdock-opt/grid/rdock-grid.prm

>  <SCORE>  (1) 
1.20703

>  <SCORE.INTER>  (1) 
-0.948378

>  <SCORE.INTER.CONST>  (1) 
1

>  <SCORE.INTER.POLAR>  (1) 
0

>  <SCORE.INTER.REPUL>  (1) 
0

>  <SCORE.INTER.ROT>  (1) 
2

>  <SCORE.INTER.VDW>  (1) 
-8.34838

>  <SCORE.INTER.norm>  (1) 
-0.0729522

>  <SCORE.INTRA>  (1) 
2.15541

>  <SCORE.INTRA.DIHEDRAL>  (1) 
4.93454

>  <SCORE.INTRA.DIHEDRAL.0>  (1) 
1.79659

>  <SCORE.INTRA.POLAR>  (1) 
0

>  <SCORE.INTRA.POLAR.0>  (1) 
0

>  <SCORE.INTRA.REPUL>  (1) 
0

>  <SCORE.INTRA.REPUL.0>  (1) 
0

>  <SCORE.INTRA.VDW>  (1) 
-0.311859

>  <SCORE.INTRA.VDW.0>  (1) 
-1.36312

>  <SCORE.INTRA.norm>  (1) 
0.165801

>  <SCORE.RESTR>  (1) 
0

>  <SCORE.RESTR.CAVITY>  (1) 
0

>  <SCORE.RESTR.norm>  (1) 
0

>  <SCORE.SYSTEM>  (1) 
0

>  <SCORE.SYSTEM.CONST>  (1) 
0

>  <SCORE.SYSTEM.DIHEDRAL>  (1) 
0

>  <SCORE.SYSTEM.norm>  (1) 
0

>  <SCORE.heavy>  (1) 
13

>  <SCORE.norm>  (1) 
0.0928485

>  <TETHERED ATOMS>  (1) 
6,7,9,11,8,4,10,5,12

>  <skeledock_score>  (1) 
49

$$$$
