F13
     RDKit          3D

 16 16  0  0  0  0  0  0  0  0999 V2000
  -25.4396   13.5934   28.5563 Br  0  0  0  0  0  0  0  0  0  0  0  0
  -23.6087   14.1011   28.7121 C   0  0  0  0  0  0  0  0  0  0  0  0
  -22.5035   13.3054   28.5165 C   0  0  0  0  0  0  0  0  0  0  0  0
  -21.4088   14.0620   28.7216 N   0  0  0  0  0  0  0  0  0  0  0  0
  -20.0234   13.6271   28.5683 C   0  0  0  0  0  0  0  0  0  0  0  0
  -19.2045   14.6793   27.8199 C   0  0  0  0  0  0  0  0  0  0  0  0
  -19.2211   15.9009   28.5084 O   0  0  0  0  0  0  0  0  0  0  0  0
  -21.7636   15.3010   29.0272 N   0  0  0  0  0  0  0  0  0  0  0  0
  -23.1105   15.3475   29.0335 C   0  0  0  0  0  0  0  0  0  0  0  0
  -22.4971   12.2599   28.2357 H   0  0  0  0  0  0  0  0  0  0  0  0
  -19.5767   13.4640   29.5730 H   0  0  0  0  0  0  0  0  0  0  0  0
  -19.9852   12.6606   28.0192 H   0  0  0  0  0  0  0  0  0  0  0  0
  -19.6552   14.8353   26.8172 H   0  0  0  0  0  0  0  0  0  0  0  0
  -18.1604   14.3200   27.6679 H   0  0  0  0  0  0  0  0  0  0  0  0
  -20.1741   16.1232   28.6753 H   0  0  0  0  0  0  0  0  0  0  0  0
  -23.6906   16.2342   29.2504 H   0  0  0  0  0  0  0  0  0  0  0  0
  1  2  1  0
  2  3  2  0
  3  4  1  0
  4  5  1  0
  5  6  1  0
  6  7  1  0
  4  8  1  0
  8  9  2  0
  9  2  1  0
  3 10  1  0
  5 11  1  0
  5 12  1  0
  6 13  1  0
  6 14  1  0
  7 15  1  0
  9 16  1  0
M  END
>  <CHROM.1>  (1) 
135.46540149,59.25423937,-52.58642437,-2.98498518,-0.18394083,-3.00061812

>  <Name>  (1) 
F13

>  <RI>  (1) 
1.25672e+07

>  <Rbt.Current_Directory>  (1) 
/data/out

>  <Rbt.Executable>  (1) 
rbdock ($Id: //depot/dev/client3/rdock/2013.1/src/exe/rbdock.cxx#4 $)

>  <Rbt.Library>  (1) 
libRbt.so (2013.1, Build901 2013/11/27)

>  <Rbt.Parameter_File>  (1) 
/python_libraries/phenodiscovery/docking/templates/RDOCK_TETHER.conf

>  <Rbt.Receptor>  (1) 
/data/out/rdock-opt/grid/rdock-grid.prm

>  <SCORE>  (1) 
-4.58542

>  <SCORE.INTER>  (1) 
-0.815898

>  <SCORE.INTER.CONST>  (1) 
1

>  <SCORE.INTER.POLAR>  (1) 
-0.489763

>  <SCORE.INTER.REPUL>  (1) 
0

>  <SCORE.INTER.ROT>  (1) 
2

>  <SCORE.INTER.VDW>  (1) 
-6.5507

>  <SCORE.INTER.norm>  (1) 
-0.0906553

>  <SCORE.INTRA>  (1) 
-3.76953

>  <SCORE.INTRA.DIHEDRAL>  (1) 
-2.85663

>  <SCORE.INTRA.DIHEDRAL.0>  (1) 
5.30376

>  <SCORE.INTRA.POLAR>  (1) 
-0.803714

>  <SCORE.INTRA.POLAR.0>  (1) 
0

>  <SCORE.INTRA.REPUL>  (1) 
0

>  <SCORE.INTRA.REPUL.0>  (1) 
0

>  <SCORE.INTRA.VDW>  (1) 
0.391419

>  <SCORE.INTRA.VDW.0>  (1) 
-0.763558

>  <SCORE.INTRA.norm>  (1) 
-0.418836

>  <SCORE.RESTR>  (1) 
0

>  <SCORE.RESTR.CAVITY>  (1) 
0

>  <SCORE.RESTR.norm>  (1) 
0

>  <SCORE.SYSTEM>  (1) 
0

>  <SCORE.SYSTEM.CONST>  (1) 
0

>  <SCORE.SYSTEM.DIHEDRAL>  (1) 
0

>  <SCORE.SYSTEM.norm>  (1) 
0

>  <SCORE.heavy>  (1) 
9

>  <SCORE.norm>  (1) 
-0.509492

>  <TETHERED ATOMS>  (1) 
9,8,6,2,5

>  <skeledock_score>  (1) 
25

$$$$
