F740
     RDKit          3D

 26 28  0  0  0  0  0  0  0  0999 V2000
  -18.7735   12.7880   28.2616 O   0  0  0  0  0  0  0  0  0  0  0  0
  -19.0835   13.9011   27.7544 C   0  0  0  0  0  0  0  0  0  0  0  0
  -18.8768   14.1228   26.3518 N   0  0  0  0  0  0  0  0  0  0  0  0
  -18.1929   13.1337   25.5244 C   0  0  0  0  0  0  0  0  0  0  0  0
  -17.8996   13.6126   24.1131 C   0  0  0  0  0  0  0  0  0  0  0  0
  -19.0331   12.6311   24.3655 C   0  0  0  0  0  0  0  0  0  0  0  0
  -19.6068   14.9761   28.6268 C   0  0  0  0  0  0  0  0  0  0  0  0
  -20.3509   16.0443   28.0581 C   0  0  0  0  0  0  0  0  0  0  0  0
  -20.8904   17.0565   28.8717 C   0  0  0  0  0  0  0  0  0  0  0  0
  -20.6593   16.9817   30.2404 C   0  0  0  0  0  0  0  0  0  0  0  0
  -21.0765   17.8483   31.2322 O   0  0  0  0  0  0  0  0  0  0  0  0
  -20.5844   17.3553   32.4863 C   0  0  0  0  0  0  0  0  0  0  0  0
  -19.8627   16.1593   32.1599 O   0  0  0  0  0  0  0  0  0  0  0  0
  -19.9376   15.9752   30.7926 C   0  0  0  0  0  0  0  0  0  0  0  0
  -19.3898   14.9508   30.0254 C   0  0  0  0  0  0  0  0  0  0  0  0
  -19.0220   15.0763   25.9515 H   0  0  0  0  0  0  0  0  0  0  0  0
  -17.4913   12.4155   25.9993 H   0  0  0  0  0  0  0  0  0  0  0  0
  -17.0001   13.1540   23.6511 H   0  0  0  0  0  0  0  0  0  0  0  0
  -18.2410   14.6416   23.8695 H   0  0  0  0  0  0  0  0  0  0  0  0
  -18.8078   11.5893   24.0548 H   0  0  0  0  0  0  0  0  0  0  0  0
  -20.0473   13.0774   24.2799 H   0  0  0  0  0  0  0  0  0  0  0  0
  -20.5295   16.0824   26.9906 H   0  0  0  0  0  0  0  0  0  0  0  0
  -21.4663   17.8682   28.4470 H   0  0  0  0  0  0  0  0  0  0  0  0
  -21.4308   17.1188   33.1646 H   0  0  0  0  0  0  0  0  0  0  0  0
  -19.9034   18.0989   32.9505 H   0  0  0  0  0  0  0  0  0  0  0  0
  -18.8063   14.1745   30.5019 H   0  0  0  0  0  0  0  0  0  0  0  0
  1  2  2  0
  2  3  1  0
  3  4  1  0
  4  5  1  0
  5  6  1  0
  2  7  1  0
  7  8  2  0
  8  9  1  0
  9 10  2  0
 10 11  1  0
 11 12  1  0
 12 13  1  0
 13 14  1  0
 14 15  2  0
  6  4  1  0
  7 15  1  0
 10 14  1  0
  3 16  1  0
  4 17  1  0
  5 18  1  0
  5 19  1  0
  6 20  1  0
  6 21  1  0
  8 22  1  0
  9 23  1  0
 12 24  1  0
 12 25  1  0
 15 26  1  0
M  END
>  <CHROM.1>  (1) 
-172.25504191,-159.67500447,-2.06192037,0.95359661,-1.77004250

>  <Name>  (1) 
F740

>  <RI>  (1) 
3.8319e+07

>  <Rbt.Current_Directory>  (1) 
/data/out

>  <Rbt.Executable>  (1) 
rbdock ($Id: //depot/dev/client3/rdock/2013.1/src/exe/rbdock.cxx#4 $)

>  <Rbt.Library>  (1) 
libRbt.so (2013.1, Build901 2013/11/27)

>  <Rbt.Parameter_File>  (1) 
/python_libraries/phenodiscovery/docking/templates/RDOCK_TETHER.conf

>  <Rbt.Receptor>  (1) 
/data/out/rdock-opt/grid/rdock-grid.prm

>  <SCORE>  (1) 
0.296501

>  <SCORE.INTER>  (1) 
-0.27853

>  <SCORE.INTER.CONST>  (1) 
1

>  <SCORE.INTER.POLAR>  (1) 
0

>  <SCORE.INTER.REPUL>  (1) 
0

>  <SCORE.INTER.ROT>  (1) 
2

>  <SCORE.INTER.VDW>  (1) 
-7.67853

>  <SCORE.INTER.norm>  (1) 
-0.0185687

>  <SCORE.INTRA>  (1) 
0.575032

>  <SCORE.INTRA.DIHEDRAL>  (1) 
-1.01996

>  <SCORE.INTRA.DIHEDRAL.0>  (1) 
4.07473

>  <SCORE.INTRA.POLAR>  (1) 
0

>  <SCORE.INTRA.POLAR.0>  (1) 
0

>  <SCORE.INTRA.REPUL>  (1) 
0

>  <SCORE.INTRA.REPUL.0>  (1) 
0

>  <SCORE.INTRA.VDW>  (1) 
1.08501

>  <SCORE.INTRA.VDW.0>  (1) 
-1.46063

>  <SCORE.INTRA.norm>  (1) 
0.0383354

>  <SCORE.RESTR>  (1) 
0

>  <SCORE.RESTR.CAVITY>  (1) 
0

>  <SCORE.RESTR.norm>  (1) 
0

>  <SCORE.SYSTEM>  (1) 
0

>  <SCORE.SYSTEM.CONST>  (1) 
0

>  <SCORE.SYSTEM.DIHEDRAL>  (1) 
0

>  <SCORE.SYSTEM.norm>  (1) 
0

>  <SCORE.heavy>  (1) 
15

>  <SCORE.norm>  (1) 
0.0197668

>  <TETHERED ATOMS>  (1) 
7,4,3,2,6,10,8,9,15,14

>  <skeledock_score>  (1) 
45

$$$$
