F274
     RDKit          3D

 26 27  0  0  0  0  0  0  0  0999 V2000
  -21.7459   15.9555   31.7590 C   0  0  0  0  0  0  0  0  0  0  0  0
  -20.9307   15.2729   30.7126 C   0  0  0  0  0  0  0  0  0  0  0  0
  -21.3402   14.9944   29.4253 C   0  0  0  0  0  0  0  0  0  0  0  0
  -20.2426   14.3707   28.8727 C   0  0  0  0  0  0  0  0  0  0  0  0
  -20.1165   13.8655   27.4684 C   0  0  0  0  0  0  0  0  0  0  0  0
  -18.9512   14.4661   26.8033 N   0  0  0  0  0  0  0  0  0  0  0  0
  -18.1583   15.2665   27.5256 N   0  0  0  0  0  0  0  0  0  0  0  0
  -17.0488   15.8547   27.0055 C   0  0  0  0  0  0  0  0  0  0  0  0
  -16.1979   16.7370   27.8618 C   0  0  0  0  0  0  0  0  0  0  0  0
  -16.7039   15.6052   25.6778 C   0  0  0  0  0  0  0  0  0  0  0  0
  -17.5057   14.7600   24.9186 C   0  0  0  0  0  0  0  0  0  0  0  0
  -18.6368   14.1826   25.4980 C   0  0  0  0  0  0  0  0  0  0  0  0
  -19.3467   13.3974   24.8126 O   0  0  0  0  0  0  0  0  0  0  0  0
  -19.2877   14.3084   29.7724 O   0  0  0  0  0  0  0  0  0  0  0  0
  -19.6678   14.8416   30.8973 N   0  0  0  0  0  0  0  0  0  0  0  0
  -22.6644   15.3655   31.9599 H   0  0  0  0  0  0  0  0  0  0  0  0
  -22.0307   16.9692   31.4075 H   0  0  0  0  0  0  0  0  0  0  0  0
  -21.1633   16.0494   32.6995 H   0  0  0  0  0  0  0  0  0  0  0  0
  -22.2915   15.2160   28.9593 H   0  0  0  0  0  0  0  0  0  0  0  0
  -19.9866   12.7625   27.4947 H   0  0  0  0  0  0  0  0  0  0  0  0
  -21.0639   14.0758   26.9277 H   0  0  0  0  0  0  0  0  0  0  0  0
  -15.2127   16.2542   28.0314 H   0  0  0  0  0  0  0  0  0  0  0  0
  -16.6852   16.9132   28.8442 H   0  0  0  0  0  0  0  0  0  0  0  0
  -16.0449   17.7162   27.3610 H   0  0  0  0  0  0  0  0  0  0  0  0
  -15.8212   16.0542   25.2394 H   0  0  0  0  0  0  0  0  0  0  0  0
  -17.2450   14.5490   23.8886 H   0  0  0  0  0  0  0  0  0  0  0  0
  1  2  1  0
  2  3  1  0
  3  4  2  0
  4  5  1  0
  5  6  1  0
  6  7  1  0
  7  8  2  0
  8  9  1  0
  8 10  1  0
 10 11  2  0
 11 12  1  0
 12 13  2  0
  4 14  1  0
 14 15  1  0
  2 15  2  0
 12  6  1  0
  1 16  1  0
  1 17  1  0
  1 18  1  0
  3 19  1  0
  5 20  1  0
  5 21  1  0
  9 22  1  0
  9 23  1  0
  9 24  1  0
 10 25  1  0
 11 26  1  0
M  END
>  <CHROM.1>  (1) 
123.74677885,4.06959759,1.95084661,0.32819282,1.27508395

>  <Name>  (1) 
F274

>  <RI>  (1) 
2.1259e+07

>  <Rbt.Current_Directory>  (1) 
/data/out

>  <Rbt.Executable>  (1) 
rbdock ($Id: //depot/dev/client3/rdock/2013.1/src/exe/rbdock.cxx#4 $)

>  <Rbt.Library>  (1) 
libRbt.so (2013.1, Build901 2013/11/27)

>  <Rbt.Parameter_File>  (1) 
/python_libraries/phenodiscovery/docking/templates/RDOCK_TETHER.conf

>  <Rbt.Receptor>  (1) 
/data/out/rdock-opt/grid/rdock-grid.prm

>  <SCORE>  (1) 
1.29745

>  <SCORE.INTER>  (1) 
2.25311

>  <SCORE.INTER.CONST>  (1) 
1

>  <SCORE.INTER.POLAR>  (1) 
0

>  <SCORE.INTER.REPUL>  (1) 
0

>  <SCORE.INTER.ROT>  (1) 
2

>  <SCORE.INTER.VDW>  (1) 
-5.14689

>  <SCORE.INTER.norm>  (1) 
0.150207

>  <SCORE.INTRA>  (1) 
-0.955658

>  <SCORE.INTRA.DIHEDRAL>  (1) 
-1.75874

>  <SCORE.INTRA.DIHEDRAL.0>  (1) 
4.44116

>  <SCORE.INTRA.POLAR>  (1) 
0

>  <SCORE.INTRA.POLAR.0>  (1) 
0

>  <SCORE.INTRA.REPUL>  (1) 
0

>  <SCORE.INTRA.REPUL.0>  (1) 
0

>  <SCORE.INTRA.VDW>  (1) 
-0.0762876

>  <SCORE.INTRA.VDW.0>  (1) 
-0.68391

>  <SCORE.INTRA.norm>  (1) 
-0.0637105

>  <SCORE.RESTR>  (1) 
0

>  <SCORE.RESTR.CAVITY>  (1) 
0

>  <SCORE.RESTR.norm>  (1) 
0

>  <SCORE.SYSTEM>  (1) 
0

>  <SCORE.SYSTEM.CONST>  (1) 
0

>  <SCORE.SYSTEM.DIHEDRAL>  (1) 
0

>  <SCORE.SYSTEM.norm>  (1) 
0

>  <SCORE.heavy>  (1) 
15

>  <SCORE.norm>  (1) 
0.0864967

>  <TETHERED ATOMS>  (1) 
2,3,4,5,6,12,11,13,15

>  <skeledock_score>  (1) 
35

$$$$
