F687
     RDKit          3D

 24 25  0  0  0  0  0  0  0  0999 V2000
  -19.0945   13.1823   27.6815 F   0  0  0  0  0  0  0  0  0  0  0  0
  -19.1834   13.6289   28.9598 C   0  0  0  0  0  0  0  0  0  0  0  0
  -18.5229   12.9302   29.9755 C   0  0  0  0  0  0  0  0  0  0  0  0
  -18.5860   13.3836   31.2947 C   0  0  0  0  0  0  0  0  0  0  0  0
  -19.3060   14.5402   31.6011 C   0  0  0  0  0  0  0  0  0  0  0  0
  -19.9636   15.2472   30.5893 C   0  0  0  0  0  0  0  0  0  0  0  0
  -19.9097   14.7961   29.2557 C   0  0  0  0  0  0  0  0  0  0  0  0
  -20.5931   15.4928   28.1961 N   0  0  0  0  0  0  0  0  0  0  0  0
  -21.0637   14.8530   26.9690 C   0  0  0  0  0  0  0  0  0  0  0  0
  -19.9604   14.8000   25.9605 C   0  0  0  0  0  0  0  0  0  0  0  0
  -19.7548   13.7970   25.0329 C   0  0  0  0  0  0  0  0  0  0  0  0
  -18.6440   14.2094   24.3291 C   0  0  0  0  0  0  0  0  0  0  0  0
  -18.2309   15.3888   24.8266 N   0  0  0  0  0  0  0  0  0  0  0  0
  -19.0237   15.7578   25.8191 N   0  0  0  0  0  0  0  0  0  0  0  0
  -17.9603   12.0359   29.7399 H   0  0  0  0  0  0  0  0  0  0  0  0
  -18.0758   12.8397   32.0792 H   0  0  0  0  0  0  0  0  0  0  0  0
  -19.3547   14.8903   32.6242 H   0  0  0  0  0  0  0  0  0  0  0  0
  -20.5199   16.1341   30.8570 H   0  0  0  0  0  0  0  0  0  0  0  0
  -20.8558   16.4940   28.3419 H   0  0  0  0  0  0  0  0  0  0  0  0
  -21.3838   13.8129   27.1935 H   0  0  0  0  0  0  0  0  0  0  0  0
  -21.9488   15.3904   26.5693 H   0  0  0  0  0  0  0  0  0  0  0  0
  -20.3366   12.8969   24.8843 H   0  0  0  0  0  0  0  0  0  0  0  0
  -18.1706   13.6868   23.5086 H   0  0  0  0  0  0  0  0  0  0  0  0
  -17.4122   15.9431   24.4920 H   0  0  0  0  0  0  0  0  0  0  0  0
  1  2  1  0
  2  3  2  0
  3  4  1  0
  4  5  2  0
  5  6  1  0
  6  7  2  0
  7  8  1  0
  8  9  1  0
  9 10  1  0
 10 11  1  0
 11 12  2  0
 12 13  1  0
 13 14  1  0
  2  7  1  0
 10 14  2  0
  3 15  1  0
  4 16  1  0
  5 17  1  0
  6 18  1  0
  8 19  1  0
  9 20  1  0
  9 21  1  0
 11 22  1  0
 12 23  1  0
 13 24  1  0
M  END
>  <CHROM.1>  (1) 
26.16308386,-85.34404289,146.21709976,-1.54078344,0.81978284,-1.35823193

>  <Name>  (1) 
F687

>  <RI>  (1) 
1.76656e+07

>  <Rbt.Current_Directory>  (1) 
/data/out

>  <Rbt.Executable>  (1) 
rbdock ($Id: //depot/dev/client3/rdock/2013.1/src/exe/rbdock.cxx#4 $)

>  <Rbt.Library>  (1) 
libRbt.so (2013.1, Build901 2013/11/27)

>  <Rbt.Parameter_File>  (1) 
/python_libraries/phenodiscovery/docking/templates/RDOCK_TETHER.conf

>  <Rbt.Receptor>  (1) 
/data/out/rdock-opt/grid/rdock-grid.prm

>  <SCORE>  (1) 
-2.23927

>  <SCORE.INTER>  (1) 
-3.33029

>  <SCORE.INTER.CONST>  (1) 
1

>  <SCORE.INTER.POLAR>  (1) 
-0.514864

>  <SCORE.INTER.REPUL>  (1) 
0

>  <SCORE.INTER.ROT>  (1) 
3

>  <SCORE.INTER.VDW>  (1) 
-9.97975

>  <SCORE.INTER.norm>  (1) 
-0.237878

>  <SCORE.INTRA>  (1) 
1.09102

>  <SCORE.INTRA.DIHEDRAL>  (1) 
0.357114

>  <SCORE.INTRA.DIHEDRAL.0>  (1) 
4.91283

>  <SCORE.INTRA.POLAR>  (1) 
0

>  <SCORE.INTRA.POLAR.0>  (1) 
0

>  <SCORE.INTRA.REPUL>  (1) 
0

>  <SCORE.INTRA.REPUL.0>  (1) 
0

>  <SCORE.INTRA.VDW>  (1) 
0.912463

>  <SCORE.INTRA.VDW.0>  (1) 
-1.23379

>  <SCORE.INTRA.norm>  (1) 
0.07793

>  <SCORE.RESTR>  (1) 
0

>  <SCORE.RESTR.CAVITY>  (1) 
0

>  <SCORE.RESTR.norm>  (1) 
0

>  <SCORE.SYSTEM>  (1) 
0

>  <SCORE.SYSTEM.CONST>  (1) 
0

>  <SCORE.SYSTEM.DIHEDRAL>  (1) 
0

>  <SCORE.SYSTEM.norm>  (1) 
0

>  <SCORE.heavy>  (1) 
14

>  <SCORE.norm>  (1) 
-0.159948

>  <TETHERED ATOMS>  (1) 
2,7,6,5,4,1,8,3,9,10,14,13

>  <skeledock_score>  (1) 
50

$$$$
