F96
     RDKit          3D

 19 19  0  0  0  0  0  0  0  0999 V2000
  -19.7903   13.9209   24.5657 C   0  0  0  0  0  0  0  0  0  0  0  0
  -20.2034   14.3455   25.9372 C   0  0  0  0  0  0  0  0  0  0  0  0
  -20.2664   15.5731   26.2184 O   0  0  0  0  0  0  0  0  0  0  0  0
  -20.5268   13.3581   26.9239 N   0  0  0  0  0  0  0  0  0  0  0  0
  -20.8973   13.7349   28.2874 C   0  0  0  0  0  0  0  0  0  0  0  0
  -19.7126   14.2684   29.0345 C   0  0  0  0  0  0  0  0  0  0  0  0
  -19.7098   15.2330   30.0238 C   0  0  0  0  0  0  0  0  0  0  0  0
  -18.4423   15.4385   30.4330 N   0  0  0  0  0  0  0  0  0  0  0  0
  -17.6552   14.6356   29.7334 N   0  0  0  0  0  0  0  0  0  0  0  0
  -18.3920   13.9106   28.8736 C   0  0  0  0  0  0  0  0  0  0  0  0
  -19.5766   14.8058   23.9290 H   0  0  0  0  0  0  0  0  0  0  0  0
  -18.8760   13.2949   24.6306 H   0  0  0  0  0  0  0  0  0  0  0  0
  -20.6056   13.3299   24.0987 H   0  0  0  0  0  0  0  0  0  0  0  0
  -20.4863   12.3490   26.6516 H   0  0  0  0  0  0  0  0  0  0  0  0
  -21.6935   14.5095   28.2475 H   0  0  0  0  0  0  0  0  0  0  0  0
  -21.2940   12.8486   28.8273 H   0  0  0  0  0  0  0  0  0  0  0  0
  -20.5727   15.7524   30.4190 H   0  0  0  0  0  0  0  0  0  0  0  0
  -16.6185   14.5866   29.8450 H   0  0  0  0  0  0  0  0  0  0  0  0
  -17.9946   13.1787   28.1825 H   0  0  0  0  0  0  0  0  0  0  0  0
  1  2  1  0
  2  3  2  0
  2  4  1  0
  4  5  1  0
  5  6  1  0
  6  7  1  0
  7  8  2  0
  8  9  1  0
  9 10  1  0
  6 10  2  0
  1 11  1  0
  1 12  1  0
  1 13  1  0
  4 14  1  0
  5 15  1  0
  5 16  1  0
  7 17  1  0
  9 18  1  0
 10 19  1  0
M  END
>  <CHROM.1>  (1) 
-70.48553160,148.14312970,-1.96535515,0.37209692,1.57457791

>  <Name>  (1) 
F96

>  <RI>  (1) 
2.11033e+07

>  <Rbt.Current_Directory>  (1) 
/data/out

>  <Rbt.Executable>  (1) 
rbdock ($Id: //depot/dev/client3/rdock/2013.1/src/exe/rbdock.cxx#4 $)

>  <Rbt.Library>  (1) 
libRbt.so (2013.1, Build901 2013/11/27)

>  <Rbt.Parameter_File>  (1) 
/python_libraries/phenodiscovery/docking/templates/RDOCK_TETHER.conf

>  <Rbt.Receptor>  (1) 
/data/out/rdock-opt/grid/rdock-grid.prm

>  <SCORE>  (1) 
0.221136

>  <SCORE.INTER>  (1) 
0.754472

>  <SCORE.INTER.CONST>  (1) 
1

>  <SCORE.INTER.POLAR>  (1) 
0

>  <SCORE.INTER.REPUL>  (1) 
0

>  <SCORE.INTER.ROT>  (1) 
2

>  <SCORE.INTER.VDW>  (1) 
-6.64553

>  <SCORE.INTER.norm>  (1) 
0.0754472

>  <SCORE.INTRA>  (1) 
-0.533337

>  <SCORE.INTRA.DIHEDRAL>  (1) 
-0.0196727

>  <SCORE.INTRA.DIHEDRAL.0>  (1) 
2.53402

>  <SCORE.INTRA.POLAR>  (1) 
0

>  <SCORE.INTRA.POLAR.0>  (1) 
0

>  <SCORE.INTRA.REPUL>  (1) 
0

>  <SCORE.INTRA.REPUL.0>  (1) 
0

>  <SCORE.INTRA.VDW>  (1) 
-0.5235

>  <SCORE.INTRA.VDW.0>  (1) 
-0.994371

>  <SCORE.INTRA.norm>  (1) 
-0.0533337

>  <SCORE.RESTR>  (1) 
0

>  <SCORE.RESTR.CAVITY>  (1) 
0

>  <SCORE.RESTR.norm>  (1) 
0

>  <SCORE.SYSTEM>  (1) 
0

>  <SCORE.SYSTEM.CONST>  (1) 
0

>  <SCORE.SYSTEM.DIHEDRAL>  (1) 
0

>  <SCORE.SYSTEM.norm>  (1) 
0

>  <SCORE.heavy>  (1) 
10

>  <SCORE.norm>  (1) 
0.0221136

>  <TETHERED ATOMS>  (1) 
1,2,4,5,6,3,10,9,8,7

>  <skeledock_score>  (1) 
66

$$$$
