F217
     RDKit          3D

 28 29  0  0  0  0  0  0  0  0999 V2000
  -21.1917   11.9737   24.0873 C   0  0  0  0  0  0  0  0  0  0  0  0
  -20.4610   12.7425   25.1423 C   0  0  0  0  0  0  0  0  0  0  0  0
  -21.0559   13.7202   25.8755 N   0  0  0  0  0  0  0  0  0  0  0  0
  -20.0570   14.1572   26.6638 C   0  0  0  0  0  0  0  0  0  0  0  0
  -20.1055   15.1878   27.5993 C   0  0  0  0  0  0  0  0  0  0  0  0
  -18.9209   15.5007   28.2915 C   0  0  0  0  0  0  0  0  0  0  0  0
  -17.7297   14.7863   28.0311 C   0  0  0  0  0  0  0  0  0  0  0  0
  -17.7124   13.7534   27.0754 C   0  0  0  0  0  0  0  0  0  0  0  0
  -18.9076   13.4655   26.4120 C   0  0  0  0  0  0  0  0  0  0  0  0
  -19.1491   12.5555   25.4529 N   0  0  0  0  0  0  0  0  0  0  0  0
  -18.1810   11.6844   24.7826 C   0  0  0  0  0  0  0  0  0  0  0  0
  -17.5161   12.4332   23.6212 C   0  0  0  0  0  0  0  0  0  0  0  0
  -17.2387   11.5524   22.4331 C   0  0  0  0  0  0  0  0  0  0  0  0
  -17.9186   11.6535   21.3758 O   0  0  0  0  0  0  0  0  0  0  0  0
  -16.1906   10.5867   22.5023 N   0  0  0  0  0  0  0  0  0  0  0  0
  -21.1936   10.8944   24.3451 H   0  0  0  0  0  0  0  0  0  0  0  0
  -20.6958   12.1189   23.1054 H   0  0  0  0  0  0  0  0  0  0  0  0
  -22.2422   12.3254   24.0134 H   0  0  0  0  0  0  0  0  0  0  0  0
  -21.0214   15.7338   27.7845 H   0  0  0  0  0  0  0  0  0  0  0  0
  -18.9216   16.2960   29.0256 H   0  0  0  0  0  0  0  0  0  0  0  0
  -16.8236   15.0380   28.5666 H   0  0  0  0  0  0  0  0  0  0  0  0
  -16.8006   13.2106   26.8655 H   0  0  0  0  0  0  0  0  0  0  0  0
  -17.4106   11.3522   25.5117 H   0  0  0  0  0  0  0  0  0  0  0  0
  -18.6921   10.7739   24.4019 H   0  0  0  0  0  0  0  0  0  0  0  0
  -18.1763   13.2660   23.2974 H   0  0  0  0  0  0  0  0  0  0  0  0
  -16.5549   12.8683   23.9696 H   0  0  0  0  0  0  0  0  0  0  0  0
  -15.9873    9.9689   21.6855 H   0  0  0  0  0  0  0  0  0  0  0  0
  -15.6164   10.4872   23.3687 H   0  0  0  0  0  0  0  0  0  0  0  0
  1  2  1  0
  2  3  2  0
  3  4  1  0
  4  5  2  0
  5  6  1  0
  6  7  2  0
  7  8  1  0
  8  9  2  0
  9 10  1  0
 10 11  1  0
 11 12  1  0
 12 13  1  0
 13 14  2  0
 13 15  1  0
 10  2  1  0
  4  9  1  0
  1 16  1  0
  1 17  1  0
  1 18  1  0
  5 19  1  0
  6 20  1  0
  7 21  1  0
  8 22  1  0
 11 23  1  0
 11 24  1  0
 12 25  1  0
 12 26  1  0
 15 27  1  0
 15 28  1  0
M  END
>  <CHROM.1>  (1) 
87.48641616,-143.74928594,107.58774325,1.78114719,-0.09760729,0.89218672

>  <Name>  (1) 
F217

>  <RI>  (1) 
3.26578e+07

>  <Rbt.Current_Directory>  (1) 
/data/out

>  <Rbt.Executable>  (1) 
rbdock ($Id: //depot/dev/client3/rdock/2013.1/src/exe/rbdock.cxx#4 $)

>  <Rbt.Library>  (1) 
libRbt.so (2013.1, Build901 2013/11/27)

>  <Rbt.Parameter_File>  (1) 
/python_libraries/phenodiscovery/docking/templates/RDOCK_TETHER.conf

>  <Rbt.Receptor>  (1) 
/data/out/rdock-opt/grid/rdock-grid.prm

>  <SCORE>  (1) 
7.84091

>  <SCORE.INTER>  (1) 
5.51401

>  <SCORE.INTER.CONST>  (1) 
1

>  <SCORE.INTER.POLAR>  (1) 
-0.824115

>  <SCORE.INTER.REPUL>  (1) 
0.000493845

>  <SCORE.INTER.ROT>  (1) 
3

>  <SCORE.INTER.VDW>  (1) 
-0.0864685

>  <SCORE.INTER.norm>  (1) 
0.367601

>  <SCORE.INTRA>  (1) 
2.3269

>  <SCORE.INTRA.DIHEDRAL>  (1) 
3.83466

>  <SCORE.INTRA.DIHEDRAL.0>  (1) 
4.01635

>  <SCORE.INTRA.POLAR>  (1) 
0

>  <SCORE.INTRA.POLAR.0>  (1) 
0

>  <SCORE.INTRA.REPUL>  (1) 
0

>  <SCORE.INTRA.REPUL.0>  (1) 
0

>  <SCORE.INTRA.VDW>  (1) 
0.409568

>  <SCORE.INTRA.VDW.0>  (1) 
-1.24248

>  <SCORE.INTRA.norm>  (1) 
0.155127

>  <SCORE.RESTR>  (1) 
0

>  <SCORE.RESTR.CAVITY>  (1) 
0

>  <SCORE.RESTR.norm>  (1) 
0

>  <SCORE.SYSTEM>  (1) 
0

>  <SCORE.SYSTEM.CONST>  (1) 
0

>  <SCORE.SYSTEM.DIHEDRAL>  (1) 
0

>  <SCORE.SYSTEM.norm>  (1) 
0

>  <SCORE.heavy>  (1) 
15

>  <SCORE.norm>  (1) 
0.522727

>  <TETHERED ATOMS>  (1) 
4,5,6,7,8,9,10,11,12

>  <skeledock_score>  (1) 
51

$$$$
