F488
     RDKit          3D

 38 39  0  0  0  0  0  0  0  0999 V2000
  -15.3202   10.8321   21.7466 C   0  0  0  0  0  0  0  0  0  0  0  0
  -16.2577   11.2585   22.7962 N   0  0  0  0  0  0  0  0  0  0  0  0
  -15.8555   12.5717   23.3535 C   0  0  0  0  0  0  0  0  0  0  0  0
  -17.0227   13.3557   23.9951 C   0  0  0  0  0  0  0  0  0  0  0  0
  -18.1225   12.4642   24.3975 N   0  0  0  0  0  0  0  0  0  0  0  0
  -18.5932   11.4321   23.4624 C   0  0  0  0  0  0  0  0  0  0  0  0
  -17.6353   11.2813   22.2812 C   0  0  0  0  0  0  0  0  0  0  0  0
  -18.8134   12.6318   25.6544 C   0  0  0  0  0  0  0  0  0  0  0  0
  -19.4791   11.6726   26.1312 O   0  0  0  0  0  0  0  0  0  0  0  0
  -18.7308   13.9123   26.4348 C   0  0  0  0  0  0  0  0  0  0  0  0
  -19.8134   13.9994   27.3594 O   0  0  0  0  0  0  0  0  0  0  0  0
  -19.9535   15.0171   28.3150 C   0  0  0  0  0  0  0  0  0  0  0  0
  -21.0465   15.8850   28.2094 C   0  0  0  0  0  0  0  0  0  0  0  0
  -21.2206   16.9237   29.1290 C   0  0  0  0  0  0  0  0  0  0  0  0
  -20.2961   17.1118   30.1668 C   0  0  0  0  0  0  0  0  0  0  0  0
  -20.5051   18.2000   31.1777 C   0  0  0  0  0  0  0  0  0  0  0  0
  -19.2129   16.2297   30.2915 C   0  0  0  0  0  0  0  0  0  0  0  0
  -19.0360   15.1941   29.3689 C   0  0  0  0  0  0  0  0  0  0  0  0
  -14.2800   10.8344   22.1386 H   0  0  0  0  0  0  0  0  0  0  0  0
  -15.3767   11.5028   20.8603 H   0  0  0  0  0  0  0  0  0  0  0  0
  -15.5515    9.7926   21.4297 H   0  0  0  0  0  0  0  0  0  0  0  0
  -15.0811   12.3921   24.1307 H   0  0  0  0  0  0  0  0  0  0  0  0
  -15.3947   13.2202   22.5729 H   0  0  0  0  0  0  0  0  0  0  0  0
  -16.6268   13.9333   24.8567 H   0  0  0  0  0  0  0  0  0  0  0  0
  -17.4179   14.0858   23.2557 H   0  0  0  0  0  0  0  0  0  0  0  0
  -19.6085   11.6932   23.0937 H   0  0  0  0  0  0  0  0  0  0  0  0
  -18.6478   10.4546   23.9903 H   0  0  0  0  0  0  0  0  0  0  0  0
  -17.8754   10.3302   21.7554 H   0  0  0  0  0  0  0  0  0  0  0  0
  -17.7753   12.1209   21.5620 H   0  0  0  0  0  0  0  0  0  0  0  0
  -18.7851   14.7762   25.7379 H   0  0  0  0  0  0  0  0  0  0  0  0
  -17.7656   13.9308   26.9843 H   0  0  0  0  0  0  0  0  0  0  0  0
  -21.7634   15.7550   27.4085 H   0  0  0  0  0  0  0  0  0  0  0  0
  -22.0765   17.5802   29.0315 H   0  0  0  0  0  0  0  0  0  0  0  0
  -21.0230   19.0683   30.7173 H   0  0  0  0  0  0  0  0  0  0  0  0
  -19.5316   18.5545   31.5787 H   0  0  0  0  0  0  0  0  0  0  0  0
  -21.1222   17.8125   32.0149 H   0  0  0  0  0  0  0  0  0  0  0  0
  -18.5027   16.3455   31.1010 H   0  0  0  0  0  0  0  0  0  0  0  0
  -18.1851   14.5372   29.4857 H   0  0  0  0  0  0  0  0  0  0  0  0
  1  2  1  0
  2  3  1  0
  3  4  1  0
  4  5  1  0
  5  6  1  0
  6  7  1  0
  5  8  1  0
  8  9  2  0
  8 10  1  0
 10 11  1  0
 11 12  1  0
 12 13  2  0
 13 14  1  0
 14 15  2  0
 15 16  1  0
 15 17  1  0
 17 18  2  0
  7  2  1  0
 12 18  1  0
  1 19  1  0
  1 20  1  0
  1 21  1  0
  3 22  1  0
  3 23  1  0
  4 24  1  0
  4 25  1  0
  6 26  1  0
  6 27  1  0
  7 28  1  0
  7 29  1  0
 10 30  1  0
 10 31  1  0
 13 32  1  0
 14 33  1  0
 16 34  1  0
 16 35  1  0
 16 36  1  0
 17 37  1  0
 18 38  1  0
M  END
>  <CHROM.1>  (1) 
160.45612180,174.14785626,115.58371181,1.79491468,-0.50357340,0.83000190

>  <Name>  (1) 
F488

>  <RI>  (1) 
2.19718e+07

>  <Rbt.Current_Directory>  (1) 
/data/out

>  <Rbt.Executable>  (1) 
rbdock ($Id: //depot/dev/client3/rdock/2013.1/src/exe/rbdock.cxx#4 $)

>  <Rbt.Library>  (1) 
libRbt.so (2013.1, Build901 2013/11/27)

>  <Rbt.Parameter_File>  (1) 
/python_libraries/phenodiscovery/docking/templates/RDOCK_TETHER.conf

>  <Rbt.Receptor>  (1) 
/data/out/rdock-opt/grid/rdock-grid.prm

>  <SCORE>  (1) 
5.2584

>  <SCORE.INTER>  (1) 
4.19752

>  <SCORE.INTER.CONST>  (1) 
1

>  <SCORE.INTER.POLAR>  (1) 
0

>  <SCORE.INTER.REPUL>  (1) 
0.848528

>  <SCORE.INTER.ROT>  (1) 
3

>  <SCORE.INTER.VDW>  (1) 
-8.44512

>  <SCORE.INTER.norm>  (1) 
0.233196

>  <SCORE.INTRA>  (1) 
1.06087

>  <SCORE.INTRA.DIHEDRAL>  (1) 
4.01928

>  <SCORE.INTRA.DIHEDRAL.0>  (1) 
1.34389

>  <SCORE.INTRA.POLAR>  (1) 
0

>  <SCORE.INTRA.POLAR.0>  (1) 
0

>  <SCORE.INTRA.REPUL>  (1) 
0

>  <SCORE.INTRA.REPUL.0>  (1) 
0

>  <SCORE.INTRA.VDW>  (1) 
-0.948765

>  <SCORE.INTRA.VDW.0>  (1) 
0.0476563

>  <SCORE.INTRA.norm>  (1) 
0.0589375

>  <SCORE.RESTR>  (1) 
0

>  <SCORE.RESTR.CAVITY>  (1) 
0

>  <SCORE.RESTR.norm>  (1) 
0

>  <SCORE.SYSTEM>  (1) 
0

>  <SCORE.SYSTEM.CONST>  (1) 
0

>  <SCORE.SYSTEM.DIHEDRAL>  (1) 
0

>  <SCORE.SYSTEM.norm>  (1) 
0

>  <SCORE.heavy>  (1) 
18

>  <SCORE.norm>  (1) 
0.292133

>  <TETHERED ATOMS>  (1) 
12,13,14,15,17,18,8,10,11,9

>  <skeledock_score>  (1) 
56

$$$$
