F584
     RDKit          3D

 27 28  0  0  0  0  0  0  0  0999 V2000
  -17.5883   12.4650   25.3899 C   0  0  0  0  0  0  0  0  0  0  0  0
  -17.7552   13.2945   26.5357 O   0  0  0  0  0  0  0  0  0  0  0  0
  -18.6945   14.3356   26.6461 C   0  0  0  0  0  0  0  0  0  0  0  0
  -18.4521   15.5906   26.0619 C   0  0  0  0  0  0  0  0  0  0  0  0
  -19.3873   16.6122   26.1721 C   0  0  0  0  0  0  0  0  0  0  0  0
  -20.5839   16.3968   26.8468 C   0  0  0  0  0  0  0  0  0  0  0  0
  -20.8789   15.1533   27.4309 C   0  0  0  0  0  0  0  0  0  0  0  0
  -22.1709   15.0158   28.0692 N   0  0  0  0  0  0  0  0  0  0  0  0
  -22.8107   13.7867   28.4272 C   0  0  0  0  0  0  0  0  0  0  0  0
  -23.9784   13.5612   28.0115 O   0  0  0  0  0  0  0  0  0  0  0  0
  -22.2044   12.8414   29.4185 C   0  0  0  0  0  0  0  0  0  0  0  0
  -20.6793   12.8706   29.4141 C   0  0  0  0  0  0  0  0  0  0  0  0
  -20.1285   12.7523   27.9902 C   0  0  0  0  0  0  0  0  0  0  0  0
  -19.9066   14.1083   27.3509 C   0  0  0  0  0  0  0  0  0  0  0  0
  -16.7771   11.7347   25.5869 H   0  0  0  0  0  0  0  0  0  0  0  0
  -17.3054   13.0809   24.5103 H   0  0  0  0  0  0  0  0  0  0  0  0
  -18.5256   11.9068   25.1825 H   0  0  0  0  0  0  0  0  0  0  0  0
  -17.5373   15.7908   25.5217 H   0  0  0  0  0  0  0  0  0  0  0  0
  -19.1875   17.5769   25.7234 H   0  0  0  0  0  0  0  0  0  0  0  0
  -21.2984   17.2089   26.9029 H   0  0  0  0  0  0  0  0  0  0  0  0
  -22.8043   15.8475   28.0475 H   0  0  0  0  0  0  0  0  0  0  0  0
  -22.5703   13.1028   30.4342 H   0  0  0  0  0  0  0  0  0  0  0  0
  -22.5468   11.8079   29.1902 H   0  0  0  0  0  0  0  0  0  0  0  0
  -20.3078   13.7946   29.9110 H   0  0  0  0  0  0  0  0  0  0  0  0
  -20.3185   12.0103   30.0198 H   0  0  0  0  0  0  0  0  0  0  0  0
  -19.1811   12.1772   28.0550 H   0  0  0  0  0  0  0  0  0  0  0  0
  -20.8076   12.1520   27.3458 H   0  0  0  0  0  0  0  0  0  0  0  0
  1  2  1  0
  2  3  1  0
  3  4  2  0
  4  5  1  0
  5  6  2  0
  6  7  1  0
  7  8  1  0
  8  9  1  0
  9 10  2  0
  9 11  1  0
 11 12  1  0
 12 13  1  0
 13 14  1  0
  3 14  1  0
 14  7  2  0
  1 15  1  0
  1 16  1  0
  1 17  1  0
  4 18  1  0
  5 19  1  0
  6 20  1  0
  8 21  1  0
 11 22  1  0
 11 23  1  0
 12 24  1  0
 12 25  1  0
 13 26  1  0
 13 27  1  0
M  END
>  <CHROM.1>  (1) 
-79.49641712,-0.65535746,-0.34536023,2.54971827

>  <Name>  (1) 
F584

>  <RI>  (1) 
1.22959e+07

>  <Rbt.Current_Directory>  (1) 
/data/out

>  <Rbt.Executable>  (1) 
rbdock ($Id: //depot/dev/client3/rdock/2013.1/src/exe/rbdock.cxx#4 $)

>  <Rbt.Library>  (1) 
libRbt.so (2013.1, Build901 2013/11/27)

>  <Rbt.Parameter_File>  (1) 
/python_libraries/phenodiscovery/docking/templates/RDOCK_TETHER.conf

>  <Rbt.Receptor>  (1) 
/data/out/rdock-opt/grid/rdock-grid.prm

>  <SCORE>  (1) 
23.2747

>  <SCORE.INTER>  (1) 
22.2567

>  <SCORE.INTER.CONST>  (1) 
1

>  <SCORE.INTER.POLAR>  (1) 
0

>  <SCORE.INTER.REPUL>  (1) 
0

>  <SCORE.INTER.ROT>  (1) 
1

>  <SCORE.INTER.VDW>  (1) 
15.8567

>  <SCORE.INTER.norm>  (1) 
1.58977

>  <SCORE.INTRA>  (1) 
1.01799

>  <SCORE.INTRA.DIHEDRAL>  (1) 
4.64654

>  <SCORE.INTRA.DIHEDRAL.0>  (1) 
9.02562e-05

>  <SCORE.INTRA.POLAR>  (1) 
0

>  <SCORE.INTRA.POLAR.0>  (1) 
0

>  <SCORE.INTRA.REPUL>  (1) 
0

>  <SCORE.INTRA.REPUL.0>  (1) 
0

>  <SCORE.INTRA.VDW>  (1) 
-1.30528

>  <SCORE.INTRA.VDW.0>  (1) 
0.182901

>  <SCORE.INTRA.norm>  (1) 
0.0727134

>  <SCORE.RESTR>  (1) 
0

>  <SCORE.RESTR.CAVITY>  (1) 
0

>  <SCORE.RESTR.norm>  (1) 
0

>  <SCORE.SYSTEM>  (1) 
0

>  <SCORE.SYSTEM.CONST>  (1) 
0

>  <SCORE.SYSTEM.DIHEDRAL>  (1) 
0

>  <SCORE.SYSTEM.norm>  (1) 
0

>  <SCORE.heavy>  (1) 
14

>  <SCORE.norm>  (1) 
1.66248

>  <TETHERED ATOMS>  (1) 
3,14,13,12,4,7,8,9,11

>  <skeledock_score>  (1) 
44

$$$$
