F179
     RDKit          3D

 29 30  0  0  0  0  0  0  0  0999 V2000
  -19.7219   16.4247   30.2132 C   0  0  0  0  0  0  0  0  0  0  0  0
  -20.0187   14.9212   30.2643 C   0  0  0  0  0  0  0  0  0  0  0  0
  -21.3962   14.6898   30.1158 O   0  0  0  0  0  0  0  0  0  0  0  0
  -19.2429   14.1283   29.2412 C   0  0  0  0  0  0  0  0  0  0  0  0
  -17.9918   13.5435   29.3576 C   0  0  0  0  0  0  0  0  0  0  0  0
  -17.6668   12.9586   28.1890 N   0  0  0  0  0  0  0  0  0  0  0  0
  -18.6776   13.1403   27.3510 N   0  0  0  0  0  0  0  0  0  0  0  0
  -19.6453   13.8595   27.9500 C   0  0  0  0  0  0  0  0  0  0  0  0
  -18.6751   12.7194   25.9459 C   0  0  0  0  0  0  0  0  0  0  0  0
  -18.6913   13.9257   25.0069 C   0  0  0  0  0  0  0  0  0  0  0  0
  -20.1432   14.1157   24.6101 C   0  0  0  0  0  0  0  0  0  0  0  0
  -20.7487   12.7228   24.6215 C   0  0  0  0  0  0  0  0  0  0  0  0
  -19.9380   11.9092   25.6264 C   0  0  0  0  0  0  0  0  0  0  0  0
  -20.0186   16.8513   29.2313 H   0  0  0  0  0  0  0  0  0  0  0  0
  -18.6390   16.6083   30.3804 H   0  0  0  0  0  0  0  0  0  0  0  0
  -20.2923   16.9455   31.0113 H   0  0  0  0  0  0  0  0  0  0  0  0
  -19.7163   14.5570   31.2696 H   0  0  0  0  0  0  0  0  0  0  0  0
  -21.5448   13.7106   30.1955 H   0  0  0  0  0  0  0  0  0  0  0  0
  -17.3489   13.5526   30.2272 H   0  0  0  0  0  0  0  0  0  0  0  0
  -20.5674   14.1768   27.4796 H   0  0  0  0  0  0  0  0  0  0  0  0
  -17.7665   12.1085   25.7420 H   0  0  0  0  0  0  0  0  0  0  0  0
  -18.0933   13.6938   24.0975 H   0  0  0  0  0  0  0  0  0  0  0  0
  -18.2746   14.8419   25.4794 H   0  0  0  0  0  0  0  0  0  0  0  0
  -20.6571   14.7540   25.3621 H   0  0  0  0  0  0  0  0  0  0  0  0
  -20.2309   14.5887   23.6080 H   0  0  0  0  0  0  0  0  0  0  0  0
  -20.6537   12.2699   23.6098 H   0  0  0  0  0  0  0  0  0  0  0  0
  -21.8237   12.7583   24.9021 H   0  0  0  0  0  0  0  0  0  0  0  0
  -20.5433   11.7232   26.5415 H   0  0  0  0  0  0  0  0  0  0  0  0
  -19.6652   10.9243   25.1877 H   0  0  0  0  0  0  0  0  0  0  0  0
  1  2  1  0
  2  3  1  0
  2  4  1  0
  4  5  1  0
  5  6  2  0
  6  7  1  0
  7  8  1  0
  7  9  1  0
  9 10  1  0
 10 11  1  0
 11 12  1  0
 12 13  1  0
  4  8  2  0
 13  9  1  0
  1 14  1  0
  1 15  1  0
  1 16  1  0
  2 17  1  0
  3 18  1  0
  5 19  1  0
  8 20  1  0
  9 21  1  0
 10 22  1  0
 10 23  1  0
 11 24  1  0
 11 25  1  0
 12 26  1  0
 12 27  1  0
 13 28  1  0
 13 29  1  0
M  END
>  <CHROM.1>  (1) 
-177.52829334,89.56769463,-112.96473322,1.22781152,-0.80554979,-2.14617418

>  <Name>  (1) 
F179

>  <RI>  (1) 
4.14716e+07

>  <Rbt.Current_Directory>  (1) 
/data/out

>  <Rbt.Executable>  (1) 
rbdock ($Id: //depot/dev/client3/rdock/2013.1/src/exe/rbdock.cxx#4 $)

>  <Rbt.Library>  (1) 
libRbt.so (2013.1, Build901 2013/11/27)

>  <Rbt.Parameter_File>  (1) 
/python_libraries/phenodiscovery/docking/templates/RDOCK_TETHER.conf

>  <Rbt.Receptor>  (1) 
/data/out/rdock-opt/grid/rdock-grid.prm

>  <SCORE>  (1) 
-1.45783

>  <SCORE.INTER>  (1) 
-2.24391

>  <SCORE.INTER.CONST>  (1) 
1

>  <SCORE.INTER.POLAR>  (1) 
0

>  <SCORE.INTER.REPUL>  (1) 
0

>  <SCORE.INTER.ROT>  (1) 
2

>  <SCORE.INTER.VDW>  (1) 
-9.64391

>  <SCORE.INTER.norm>  (1) 
-0.172609

>  <SCORE.INTRA>  (1) 
0.786081

>  <SCORE.INTRA.DIHEDRAL>  (1) 
-0.175409

>  <SCORE.INTRA.DIHEDRAL.0>  (1) 
3.7921

>  <SCORE.INTRA.POLAR>  (1) 
0

>  <SCORE.INTRA.POLAR.0>  (1) 
0

>  <SCORE.INTRA.REPUL>  (1) 
0

>  <SCORE.INTRA.REPUL.0>  (1) 
0

>  <SCORE.INTRA.VDW>  (1) 
0.873785

>  <SCORE.INTRA.VDW.0>  (1) 
-2.15738

>  <SCORE.INTRA.norm>  (1) 
0.0604678

>  <SCORE.RESTR>  (1) 
0

>  <SCORE.RESTR.CAVITY>  (1) 
0

>  <SCORE.RESTR.norm>  (1) 
0

>  <SCORE.SYSTEM>  (1) 
0

>  <SCORE.SYSTEM.CONST>  (1) 
0

>  <SCORE.SYSTEM.DIHEDRAL>  (1) 
0

>  <SCORE.SYSTEM.norm>  (1) 
0

>  <SCORE.heavy>  (1) 
13

>  <SCORE.norm>  (1) 
-0.112141

>  <TETHERED ATOMS>  (1) 
8,1,2,3,10,11,9

>  <skeledock_score>  (1) 
34

$$$$
