F710
     RDKit          3D

 30 31  0  0  0  0  0  0  0  0999 V2000
  -15.9404   11.2759   20.7944 N   0  0  0  0  0  0  0  0  0  0  0  0
  -15.5079   12.3867   21.5857 C   0  0  0  0  0  0  0  0  0  0  0  0
  -14.5745   13.1147   21.1513 O   0  0  0  0  0  0  0  0  0  0  0  0
  -16.1209   12.6814   22.8591 N   0  0  0  0  0  0  0  0  0  0  0  0
  -15.8361   13.9565   23.5317 C   0  0  0  0  0  0  0  0  0  0  0  0
  -17.0746   14.4499   24.2861 C   0  0  0  0  0  0  0  0  0  0  0  0
  -17.6441   13.3996   25.1461 N   0  0  0  0  0  0  0  0  0  0  0  0
  -17.1726   12.0138   25.0147 C   0  0  0  0  0  0  0  0  0  0  0  0
  -16.9267   11.6588   23.5436 C   0  0  0  0  0  0  0  0  0  0  0  0
  -18.5563   13.7650   26.2071 C   0  0  0  0  0  0  0  0  0  0  0  0
  -19.5376   14.7532   25.9976 C   0  0  0  0  0  0  0  0  0  0  0  0
  -20.4036   15.1245   27.0302 C   0  0  0  0  0  0  0  0  0  0  0  0
  -20.3027   14.5162   28.2831 C   0  0  0  0  0  0  0  0  0  0  0  0
  -21.1434   14.8789   29.2831 F   0  0  0  0  0  0  0  0  0  0  0  0
  -19.3354   13.5337   28.5052 C   0  0  0  0  0  0  0  0  0  0  0  0
  -18.4659   13.1592   27.4762 C   0  0  0  0  0  0  0  0  0  0  0  0
  -15.4642   11.0651   19.8894 H   0  0  0  0  0  0  0  0  0  0  0  0
  -16.7514   10.6824   21.0733 H   0  0  0  0  0  0  0  0  0  0  0  0
  -14.9938   13.8150   24.2431 H   0  0  0  0  0  0  0  0  0  0  0  0
  -15.5440   14.7378   22.7966 H   0  0  0  0  0  0  0  0  0  0  0  0
  -17.8394   14.7743   23.5483 H   0  0  0  0  0  0  0  0  0  0  0  0
  -16.7832   15.3266   24.9049 H   0  0  0  0  0  0  0  0  0  0  0  0
  -16.2305   11.8915   25.5918 H   0  0  0  0  0  0  0  0  0  0  0  0
  -17.9281   11.3052   25.4195 H   0  0  0  0  0  0  0  0  0  0  0  0
  -17.9049   11.5604   23.0254 H   0  0  0  0  0  0  0  0  0  0  0  0
  -16.4025   10.6789   23.5073 H   0  0  0  0  0  0  0  0  0  0  0  0
  -19.6427   15.2331   25.0340 H   0  0  0  0  0  0  0  0  0  0  0  0
  -21.1549   15.8843   26.8568 H   0  0  0  0  0  0  0  0  0  0  0  0
  -19.2537   13.0650   29.4774 H   0  0  0  0  0  0  0  0  0  0  0  0
  -17.7097   12.4127   27.6803 H   0  0  0  0  0  0  0  0  0  0  0  0
  1  2  1  0
  2  3  2  0
  2  4  1  0
  4  5  1  0
  5  6  1  0
  6  7  1  0
  7  8  1  0
  8  9  1  0
  7 10  1  0
 10 11  2  0
 11 12  1  0
 12 13  2  0
 13 14  1  0
 13 15  1  0
 15 16  2  0
  9  4  1  0
 10 16  1  0
  1 17  1  0
  1 18  1  0
  5 19  1  0
  5 20  1  0
  6 21  1  0
  6 22  1  0
  8 23  1  0
  8 24  1  0
  9 25  1  0
  9 26  1  0
 11 27  1  0
 12 28  1  0
 15 29  1  0
 16 30  1  0
M  END
>  <CHROM.1>  (1) 
40.77056997,0.43364189,0.80099586,-1.16752316

>  <Name>  (1) 
F710

>  <RI>  (1) 
1.00397e+07

>  <Rbt.Current_Directory>  (1) 
/data/out

>  <Rbt.Executable>  (1) 
rbdock ($Id: //depot/dev/client3/rdock/2013.1/src/exe/rbdock.cxx#4 $)

>  <Rbt.Library>  (1) 
libRbt.so (2013.1, Build901 2013/11/27)

>  <Rbt.Parameter_File>  (1) 
/python_libraries/phenodiscovery/docking/templates/RDOCK_TETHER.conf

>  <Rbt.Receptor>  (1) 
/data/out/rdock-opt/grid/rdock-grid.prm

>  <SCORE>  (1) 
7.82781

>  <SCORE.INTER>  (1) 
7.74537

>  <SCORE.INTER.CONST>  (1) 
1

>  <SCORE.INTER.POLAR>  (1) 
-0.181362

>  <SCORE.INTER.REPUL>  (1) 
0

>  <SCORE.INTER.ROT>  (1) 
1

>  <SCORE.INTER.VDW>  (1) 
1.962

>  <SCORE.INTER.norm>  (1) 
0.484086

>  <SCORE.INTRA>  (1) 
0.0294138

>  <SCORE.INTRA.DIHEDRAL>  (1) 
0.690304

>  <SCORE.INTRA.DIHEDRAL.0>  (1) 
4.18414

>  <SCORE.INTRA.POLAR>  (1) 
0

>  <SCORE.INTRA.POLAR.0>  (1) 
0

>  <SCORE.INTRA.REPUL>  (1) 
0

>  <SCORE.INTRA.REPUL.0>  (1) 
0

>  <SCORE.INTRA.VDW>  (1) 
-0.315738

>  <SCORE.INTRA.VDW.0>  (1) 
-0.0714407

>  <SCORE.INTRA.norm>  (1) 
0.00183836

>  <SCORE.RESTR>  (1) 
0.0530254

>  <SCORE.RESTR.CAVITY>  (1) 
0.0530254

>  <SCORE.RESTR.norm>  (1) 
0.00331408

>  <SCORE.SYSTEM>  (1) 
0

>  <SCORE.SYSTEM.CONST>  (1) 
0

>  <SCORE.SYSTEM.DIHEDRAL>  (1) 
0

>  <SCORE.SYSTEM.norm>  (1) 
0

>  <SCORE.heavy>  (1) 
16

>  <SCORE.norm>  (1) 
0.489238

>  <TETHERED ATOMS>  (1) 
10,11,12,13,15,16,8,7

>  <skeledock_score>  (1) 
36

$$$$
