F710
     RDKit          3D

 30 31  0  0  0  0  0  0  0  0999 V2000
  -17.6944   12.4148   23.3584 N   0  0  0  0  0  0  0  0  0  0  0  0
  -18.2175   11.9530   24.6066 C   0  0  0  0  0  0  0  0  0  0  0  0
  -18.1014   10.7334   24.9045 O   0  0  0  0  0  0  0  0  0  0  0  0
  -18.8921   12.8496   25.5092 N   0  0  0  0  0  0  0  0  0  0  0  0
  -18.6465   14.2979   25.4653 C   0  0  0  0  0  0  0  0  0  0  0  0
  -18.6219   14.8794   26.8840 C   0  0  0  0  0  0  0  0  0  0  0  0
  -19.7707   14.4239   27.6825 N   0  0  0  0  0  0  0  0  0  0  0  0
  -20.6753   13.3973   27.1450 C   0  0  0  0  0  0  0  0  0  0  0  0
  -19.8747   12.2945   26.4501 C   0  0  0  0  0  0  0  0  0  0  0  0
  -20.0477   15.0297   28.9638 C   0  0  0  0  0  0  0  0  0  0  0  0
  -20.6530   16.2984   29.0456 C   0  0  0  0  0  0  0  0  0  0  0  0
  -20.8631   16.9034   30.2885 C   0  0  0  0  0  0  0  0  0  0  0  0
  -20.4787   16.2493   31.4611 C   0  0  0  0  0  0  0  0  0  0  0  0
  -20.6807   16.8399   32.6646 F   0  0  0  0  0  0  0  0  0  0  0  0
  -19.8939   14.9830   31.3938 C   0  0  0  0  0  0  0  0  0  0  0  0
  -19.6835   14.3733   30.1547 C   0  0  0  0  0  0  0  0  0  0  0  0
  -17.1653   11.7600   22.7407 H   0  0  0  0  0  0  0  0  0  0  0  0
  -17.8969   13.3746   23.0033 H   0  0  0  0  0  0  0  0  0  0  0  0
  -17.6666   14.5207   24.9910 H   0  0  0  0  0  0  0  0  0  0  0  0
  -19.4470   14.7878   24.8698 H   0  0  0  0  0  0  0  0  0  0  0  0
  -17.6797   14.5597   27.3779 H   0  0  0  0  0  0  0  0  0  0  0  0
  -18.6295   15.9890   26.8170 H   0  0  0  0  0  0  0  0  0  0  0  0
  -21.2727   12.9294   27.9581 H   0  0  0  0  0  0  0  0  0  0  0  0
  -21.3752   13.8679   26.4210 H   0  0  0  0  0  0  0  0  0  0  0  0
  -20.5829   11.6322   25.9058 H   0  0  0  0  0  0  0  0  0  0  0  0
  -19.3434   11.6892   27.2164 H   0  0  0  0  0  0  0  0  0  0  0  0
  -20.9364   16.8367   28.1519 H   0  0  0  0  0  0  0  0  0  0  0  0
  -21.3182   17.8843   30.3406 H   0  0  0  0  0  0  0  0  0  0  0  0
  -19.6045   14.4715   32.3029 H   0  0  0  0  0  0  0  0  0  0  0  0
  -19.2376   13.3874   30.1271 H   0  0  0  0  0  0  0  0  0  0  0  0
  1  2  1  0
  2  3  2  0
  2  4  1  0
  4  5  1  0
  5  6  1  0
  6  7  1  0
  7  8  1  0
  8  9  1  0
  7 10  1  0
 10 11  2  0
 11 12  1  0
 12 13  2  0
 13 14  1  0
 13 15  1  0
 15 16  2  0
  9  4  1  0
 10 16  1  0
  1 17  1  0
  1 18  1  0
  5 19  1  0
  5 20  1  0
  6 21  1  0
  6 22  1  0
  8 23  1  0
  8 24  1  0
  9 25  1  0
  9 26  1  0
 11 27  1  0
 12 28  1  0
 15 29  1  0
 16 30  1  0
M  END
>  <CHROM.1>  (1) 
76.89108169,-2.47393595,1.20046686,-1.18958994

>  <Name>  (1) 
F710

>  <RI>  (1) 
2.35024e+07

>  <Rbt.Current_Directory>  (1) 
/data/out

>  <Rbt.Executable>  (1) 
rbdock ($Id: //depot/dev/client3/rdock/2013.1/src/exe/rbdock.cxx#4 $)

>  <Rbt.Library>  (1) 
libRbt.so (2013.1, Build901 2013/11/27)

>  <Rbt.Parameter_File>  (1) 
/python_libraries/phenodiscovery/docking/templates/RDOCK_TETHER.conf

>  <Rbt.Receptor>  (1) 
/data/out/rdock-opt/grid/rdock-grid.prm

>  <SCORE>  (1) 
0.526906

>  <SCORE.INTER>  (1) 
-1.50379

>  <SCORE.INTER.CONST>  (1) 
1

>  <SCORE.INTER.POLAR>  (1) 
0

>  <SCORE.INTER.REPUL>  (1) 
0.00256368

>  <SCORE.INTER.ROT>  (1) 
1

>  <SCORE.INTER.VDW>  (1) 
-7.91661

>  <SCORE.INTER.norm>  (1) 
-0.0939869

>  <SCORE.INTRA>  (1) 
2.0307

>  <SCORE.INTRA.DIHEDRAL>  (1) 
7.44376

>  <SCORE.INTRA.DIHEDRAL.0>  (1) 
4.89927

>  <SCORE.INTRA.POLAR>  (1) 
0

>  <SCORE.INTRA.POLAR.0>  (1) 
0

>  <SCORE.INTRA.REPUL>  (1) 
0

>  <SCORE.INTRA.REPUL.0>  (1) 
0

>  <SCORE.INTRA.VDW>  (1) 
-1.69118

>  <SCORE.INTRA.VDW.0>  (1) 
0.00947902

>  <SCORE.INTRA.norm>  (1) 
0.126918

>  <SCORE.RESTR>  (1) 
0

>  <SCORE.RESTR.CAVITY>  (1) 
0

>  <SCORE.RESTR.norm>  (1) 
0

>  <SCORE.SYSTEM>  (1) 
0

>  <SCORE.SYSTEM.CONST>  (1) 
0

>  <SCORE.SYSTEM.DIHEDRAL>  (1) 
0

>  <SCORE.SYSTEM.norm>  (1) 
0

>  <SCORE.heavy>  (1) 
16

>  <SCORE.norm>  (1) 
0.0329316

>  <TETHERED ATOMS>  (1) 
10,11,12,13,15,16,2,4,5,6,7

>  <skeledock_score>  (1) 
37

$$$$
