F650
     RDKit          3D

 23 24  0  0  0  0  0  0  0  0999 V2000
  -17.6905   14.6950   27.5501 O   0  0  0  0  0  0  0  0  0  0  0  0
  -18.1409   15.5072   28.4034 C   0  0  0  0  0  0  0  0  0  0  0  0
  -17.2915   16.5662   28.8852 N   0  0  0  0  0  0  0  0  0  0  0  0
  -15.8712   16.6182   28.5780 C   0  0  0  0  0  0  0  0  0  0  0  0
  -15.3750   17.9412   29.1437 C   0  0  0  0  0  0  0  0  0  0  0  0
  -16.6223   18.7975   29.3303 C   0  0  0  0  0  0  0  0  0  0  0  0
  -17.7765   17.8132   29.4573 C   0  0  0  0  0  0  0  0  0  0  0  0
  -19.5352   15.3438   28.8602 C   0  0  0  0  0  0  0  0  0  0  0  0
  -20.6667   16.0296   28.4518 C   0  0  0  0  0  0  0  0  0  0  0  0
  -21.7214   15.6154   29.1808 N   0  0  0  0  0  0  0  0  0  0  0  0
  -21.2913   14.6993   30.0334 N   0  0  0  0  0  0  0  0  0  0  0  0
  -19.9692   14.5176   29.8760 C   0  0  0  0  0  0  0  0  0  0  0  0
  -15.3419   15.7625   29.0502 H   0  0  0  0  0  0  0  0  0  0  0  0
  -15.7233   16.5942   27.4761 H   0  0  0  0  0  0  0  0  0  0  0  0
  -14.8936   17.7675   30.1314 H   0  0  0  0  0  0  0  0  0  0  0  0
  -14.6461   18.4291   28.4606 H   0  0  0  0  0  0  0  0  0  0  0  0
  -16.5384   19.4471   30.2286 H   0  0  0  0  0  0  0  0  0  0  0  0
  -16.7722   19.4336   28.4302 H   0  0  0  0  0  0  0  0  0  0  0  0
  -18.6674   18.1827   28.9040 H   0  0  0  0  0  0  0  0  0  0  0  0
  -18.0191   17.6665   30.5296 H   0  0  0  0  0  0  0  0  0  0  0  0
  -20.7223   16.8131   27.7112 H   0  0  0  0  0  0  0  0  0  0  0  0
  -21.8996   14.2109   30.7269 H   0  0  0  0  0  0  0  0  0  0  0  0
  -19.3669   13.8355   30.4621 H   0  0  0  0  0  0  0  0  0  0  0  0
  1  2  2  0
  2  3  1  0
  3  4  1  0
  4  5  1  0
  5  6  1  0
  6  7  1  0
  2  8  1  0
  8  9  1  0
  9 10  2  0
 10 11  1  0
 11 12  1  0
  7  3  1  0
  8 12  2  0
  4 13  1  0
  4 14  1  0
  5 15  1  0
  5 16  1  0
  6 17  1  0
  6 18  1  0
  7 19  1  0
  7 20  1  0
  9 21  1  0
 11 22  1  0
 12 23  1  0
M  END
>  <CHROM.1>  (1) 
-99.54081969,-0.28891162,-0.35212611,2.29682738

>  <Name>  (1) 
F650

>  <RI>  (1) 
1.04416e+07

>  <Rbt.Current_Directory>  (1) 
/data/out

>  <Rbt.Executable>  (1) 
rbdock ($Id: //depot/dev/client3/rdock/2013.1/src/exe/rbdock.cxx#4 $)

>  <Rbt.Library>  (1) 
libRbt.so (2013.1, Build901 2013/11/27)

>  <Rbt.Parameter_File>  (1) 
/python_libraries/phenodiscovery/docking/templates/RDOCK_TETHER.conf

>  <Rbt.Receptor>  (1) 
/data/out/rdock-opt/grid/rdock-grid.prm

>  <SCORE>  (1) 
4.44465

>  <SCORE.INTER>  (1) 
1.14688

>  <SCORE.INTER.CONST>  (1) 
1

>  <SCORE.INTER.POLAR>  (1) 
0

>  <SCORE.INTER.REPUL>  (1) 
0

>  <SCORE.INTER.ROT>  (1) 
1

>  <SCORE.INTER.VDW>  (1) 
-5.25312

>  <SCORE.INTER.norm>  (1) 
0.0955732

>  <SCORE.INTRA>  (1) 
3.29777

>  <SCORE.INTRA.DIHEDRAL>  (1) 
8.62658

>  <SCORE.INTRA.DIHEDRAL.0>  (1) 
2.55309

>  <SCORE.INTRA.POLAR>  (1) 
0

>  <SCORE.INTRA.POLAR.0>  (1) 
0

>  <SCORE.INTRA.REPUL>  (1) 
0

>  <SCORE.INTRA.REPUL.0>  (1) 
0

>  <SCORE.INTRA.VDW>  (1) 
-1.01552

>  <SCORE.INTRA.VDW.0>  (1) 
-0.229986

>  <SCORE.INTRA.norm>  (1) 
0.274814

>  <SCORE.RESTR>  (1) 
0

>  <SCORE.RESTR.CAVITY>  (1) 
0

>  <SCORE.RESTR.norm>  (1) 
0

>  <SCORE.SYSTEM>  (1) 
0

>  <SCORE.SYSTEM.CONST>  (1) 
0

>  <SCORE.SYSTEM.DIHEDRAL>  (1) 
0

>  <SCORE.SYSTEM.norm>  (1) 
0

>  <SCORE.heavy>  (1) 
12

>  <SCORE.norm>  (1) 
0.370387

>  <TETHERED ATOMS>  (1) 
1,2,8,12,11,10,9

>  <skeledock_score>  (1) 
36

$$$$
