F710
     RDKit          3D

 30 31  0  0  0  0  0  0  0  0999 V2000
  -18.1848   10.4639   24.0228 N   0  0  0  0  0  0  0  0  0  0  0  0
  -18.3003   11.8889   23.9909 C   0  0  0  0  0  0  0  0  0  0  0  0
  -17.9744   12.5043   22.9402 O   0  0  0  0  0  0  0  0  0  0  0  0
  -18.7701   12.6256   25.1377 N   0  0  0  0  0  0  0  0  0  0  0  0
  -18.1747   13.9346   25.4469 C   0  0  0  0  0  0  0  0  0  0  0  0
  -19.2354   14.8797   26.0047 C   0  0  0  0  0  0  0  0  0  0  0  0
  -19.9706   14.2075   27.0778 N   0  0  0  0  0  0  0  0  0  0  0  0
  -20.6122   12.9297   26.7612 C   0  0  0  0  0  0  0  0  0  0  0  0
  -19.5802   11.9624   26.1721 C   0  0  0  0  0  0  0  0  0  0  0  0
  -20.1155   14.8145   28.3742 C   0  0  0  0  0  0  0  0  0  0  0  0
  -18.9888   15.2914   29.0646 C   0  0  0  0  0  0  0  0  0  0  0  0
  -19.1291   15.8671   30.3311 C   0  0  0  0  0  0  0  0  0  0  0  0
  -20.3946   15.9775   30.9144 C   0  0  0  0  0  0  0  0  0  0  0  0
  -20.5291   16.5378   32.1417 F   0  0  0  0  0  0  0  0  0  0  0  0
  -21.5216   15.5118   30.2312 C   0  0  0  0  0  0  0  0  0  0  0  0
  -21.3842   14.9309   28.9666 C   0  0  0  0  0  0  0  0  0  0  0  0
  -17.8922    9.9452   23.1651 H   0  0  0  0  0  0  0  0  0  0  0  0
  -18.3093    9.9250   24.9075 H   0  0  0  0  0  0  0  0  0  0  0  0
  -17.7255   14.3996   24.5430 H   0  0  0  0  0  0  0  0  0  0  0  0
  -17.3690   13.7983   26.2004 H   0  0  0  0  0  0  0  0  0  0  0  0
  -19.9452   15.1519   25.1935 H   0  0  0  0  0  0  0  0  0  0  0  0
  -18.7558   15.8159   26.3636 H   0  0  0  0  0  0  0  0  0  0  0  0
  -21.0577   12.4704   27.6708 H   0  0  0  0  0  0  0  0  0  0  0  0
  -21.4259   13.1026   26.0238 H   0  0  0  0  0  0  0  0  0  0  0  0
  -20.1318   11.0965   25.7464 H   0  0  0  0  0  0  0  0  0  0  0  0
  -18.9106   11.5954   26.9799 H   0  0  0  0  0  0  0  0  0  0  0  0
  -18.0020   15.2024   28.6281 H   0  0  0  0  0  0  0  0  0  0  0  0
  -18.2557   16.2269   30.8598 H   0  0  0  0  0  0  0  0  0  0  0  0
  -22.5024   15.6002   30.6805 H   0  0  0  0  0  0  0  0  0  0  0  0
  -22.2658   14.5815   28.4441 H   0  0  0  0  0  0  0  0  0  0  0  0
  1  2  1  0
  2  3  2  0
  2  4  1  0
  4  5  1  0
  5  6  1  0
  6  7  1  0
  7  8  1  0
  8  9  1  0
  7 10  1  0
 10 11  2  0
 11 12  1  0
 12 13  2  0
 13 14  1  0
 13 15  1  0
 15 16  2  0
  9  4  1  0
 10 16  1  0
  1 17  1  0
  1 18  1  0
  5 19  1  0
  5 20  1  0
  6 21  1  0
  6 22  1  0
  8 23  1  0
  8 24  1  0
  9 25  1  0
  9 26  1  0
 11 27  1  0
 12 28  1  0
 15 29  1  0
 16 30  1  0
M  END
>  <CHROM.1>  (1) 
-51.50250746,1.89120599,0.18853608,1.09204914

>  <Name>  (1) 
F710

>  <RI>  (1) 
3.03195e+07

>  <Rbt.Current_Directory>  (1) 
/data/out

>  <Rbt.Executable>  (1) 
rbdock ($Id: //depot/dev/client3/rdock/2013.1/src/exe/rbdock.cxx#4 $)

>  <Rbt.Library>  (1) 
libRbt.so (2013.1, Build901 2013/11/27)

>  <Rbt.Parameter_File>  (1) 
/python_libraries/phenodiscovery/docking/templates/RDOCK_TETHER.conf

>  <Rbt.Receptor>  (1) 
/data/out/rdock-opt/grid/rdock-grid.prm

>  <SCORE>  (1) 
-3.56896

>  <SCORE.INTER>  (1) 
-3.56534

>  <SCORE.INTER.CONST>  (1) 
1

>  <SCORE.INTER.POLAR>  (1) 
0

>  <SCORE.INTER.REPUL>  (1) 
0

>  <SCORE.INTER.ROT>  (1) 
1

>  <SCORE.INTER.VDW>  (1) 
-9.96534

>  <SCORE.INTER.norm>  (1) 
-0.222834

>  <SCORE.INTRA>  (1) 
-0.0036175

>  <SCORE.INTRA.DIHEDRAL>  (1) 
-0.0826217

>  <SCORE.INTRA.DIHEDRAL.0>  (1) 
7.52488

>  <SCORE.INTRA.POLAR>  (1) 
0

>  <SCORE.INTRA.POLAR.0>  (1) 
0

>  <SCORE.INTRA.REPUL>  (1) 
0

>  <SCORE.INTRA.REPUL.0>  (1) 
0

>  <SCORE.INTRA.VDW>  (1) 
0.0376934

>  <SCORE.INTRA.VDW.0>  (1) 
-1.04571

>  <SCORE.INTRA.norm>  (1) 
-0.000226094

>  <SCORE.RESTR>  (1) 
0

>  <SCORE.RESTR.CAVITY>  (1) 
0

>  <SCORE.RESTR.norm>  (1) 
0

>  <SCORE.SYSTEM>  (1) 
0

>  <SCORE.SYSTEM.CONST>  (1) 
0

>  <SCORE.SYSTEM.DIHEDRAL>  (1) 
0

>  <SCORE.SYSTEM.norm>  (1) 
0

>  <SCORE.heavy>  (1) 
16

>  <SCORE.norm>  (1) 
-0.22306

>  <TETHERED ATOMS>  (1) 
10,11,12,13,15,16,4,5,6,7

>  <skeledock_score>  (1) 
32

$$$$
