F126
     RDKit          3D

 23 23  0  0  0  0  0  0  0  0999 V2000
  -24.9660   17.1545   28.9634 C   0  0  0  0  0  0  0  0  0  0  0  0
  -24.5654   15.6898   29.1654 C   0  0  0  0  0  0  0  0  0  0  0  0
  -25.3288   15.0701   30.3400 C   0  0  0  0  0  0  0  0  0  0  0  0
  -23.0802   15.5729   29.3795 C   0  0  0  0  0  0  0  0  0  0  0  0
  -22.4545   16.3480   30.3038 N   0  0  0  0  0  0  0  0  0  0  0  0
  -21.1162   16.2546   30.5029 C   0  0  0  0  0  0  0  0  0  0  0  0
  -20.3540   15.3516   29.7579 C   0  0  0  0  0  0  0  0  0  0  0  0
  -18.6130   15.3197   30.0221 Cl  0  0  0  0  0  0  0  0  0  0  0  0
  -21.0141   14.5436   28.8054 C   0  0  0  0  0  0  0  0  0  0  0  0
  -22.3580   14.6865   28.6455 N   0  0  0  0  0  0  0  0  0  0  0  0
  -20.3151   13.5342   27.9742 C   0  0  0  0  0  0  0  0  0  0  0  0
  -20.6875   13.3007   26.7941 O   0  0  0  0  0  0  0  0  0  0  0  0
  -19.1777   12.8379   28.4888 N   0  0  0  0  0  0  0  0  0  0  0  0
  -26.0537   17.2260   28.7483 H   0  0  0  0  0  0  0  0  0  0  0  0
  -24.4128   17.5854   28.1014 H   0  0  0  0  0  0  0  0  0  0  0  0
  -24.7416   17.7553   29.8711 H   0  0  0  0  0  0  0  0  0  0  0  0
  -24.8429   15.1299   28.2444 H   0  0  0  0  0  0  0  0  0  0  0  0
  -25.0357   14.0057   30.4657 H   0  0  0  0  0  0  0  0  0  0  0  0
  -25.1141   15.6158   31.2841 H   0  0  0  0  0  0  0  0  0  0  0  0
  -26.4222   15.1083   30.1468 H   0  0  0  0  0  0  0  0  0  0  0  0
  -20.6429   16.8912   31.2388 H   0  0  0  0  0  0  0  0  0  0  0  0
  -18.8460   12.9869   29.4674 H   0  0  0  0  0  0  0  0  0  0  0  0
  -18.6716   12.1476   27.8907 H   0  0  0  0  0  0  0  0  0  0  0  0
  1  2  1  0
  2  3  1  0
  2  4  1  0
  4  5  2  0
  5  6  1  0
  6  7  2  0
  7  8  1  0
  7  9  1  0
  9 10  2  0
  9 11  1  0
 11 12  2  0
 11 13  1  0
  4 10  1  0
  1 14  1  0
  1 15  1  0
  1 16  1  0
  2 17  1  0
  3 18  1  0
  3 19  1  0
  3 20  1  0
  6 21  1  0
 13 22  1  0
 13 23  1  0
M  END
>  <CHROM.1>  (1) 
50.52610021,-145.97302028,0.38836794,-0.13868178,0.87277086

>  <Name>  (1) 
F126

>  <RI>  (1) 
3.86986e+07

>  <Rbt.Current_Directory>  (1) 
/data/out

>  <Rbt.Executable>  (1) 
rbdock ($Id: //depot/dev/client3/rdock/2013.1/src/exe/rbdock.cxx#4 $)

>  <Rbt.Library>  (1) 
libRbt.so (2013.1, Build901 2013/11/27)

>  <Rbt.Parameter_File>  (1) 
/python_libraries/phenodiscovery/docking/templates/RDOCK_TETHER.conf

>  <Rbt.Receptor>  (1) 
/data/out/rdock-opt/grid/rdock-grid.prm

>  <SCORE>  (1) 
4.17411

>  <SCORE.INTER>  (1) 
2.6963

>  <SCORE.INTER.CONST>  (1) 
1

>  <SCORE.INTER.POLAR>  (1) 
0

>  <SCORE.INTER.REPUL>  (1) 
0

>  <SCORE.INTER.ROT>  (1) 
2

>  <SCORE.INTER.VDW>  (1) 
-4.7037

>  <SCORE.INTER.norm>  (1) 
0.207408

>  <SCORE.INTRA>  (1) 
1.4778

>  <SCORE.INTRA.DIHEDRAL>  (1) 
2.43604

>  <SCORE.INTRA.DIHEDRAL.0>  (1) 
2.14881

>  <SCORE.INTRA.POLAR>  (1) 
0

>  <SCORE.INTRA.POLAR.0>  (1) 
0

>  <SCORE.INTRA.REPUL>  (1) 
0

>  <SCORE.INTRA.REPUL.0>  (1) 
0

>  <SCORE.INTRA.VDW>  (1) 
0.259785

>  <SCORE.INTRA.VDW.0>  (1) 
-1.32412

>  <SCORE.INTRA.norm>  (1) 
0.113677

>  <SCORE.RESTR>  (1) 
0

>  <SCORE.RESTR.CAVITY>  (1) 
0

>  <SCORE.RESTR.norm>  (1) 
0

>  <SCORE.SYSTEM>  (1) 
0

>  <SCORE.SYSTEM.CONST>  (1) 
0

>  <SCORE.SYSTEM.DIHEDRAL>  (1) 
0

>  <SCORE.SYSTEM.norm>  (1) 
0

>  <SCORE.heavy>  (1) 
13

>  <SCORE.norm>  (1) 
0.321085

>  <TETHERED ATOMS>  (1) 
6,7,9,11,8,4,10,5,12

>  <skeledock_score>  (1) 
49

$$$$
