F501
     RDKit          3D

 24 25  0  0  0  0  0  0  0  0999 V2000
  -22.5289   13.9139   29.0605 C   0  0  0  0  0  0  0  0  0  0  0  0
  -21.8067   14.0684   27.8050 N   0  0  0  0  0  0  0  0  0  0  0  0
  -22.3710   14.0966   26.6052 N   0  0  0  0  0  0  0  0  0  0  0  0
  -21.4509   14.2657   25.6587 N   0  0  0  0  0  0  0  0  0  0  0  0
  -20.2671   14.3549   26.2921 C   0  0  0  0  0  0  0  0  0  0  0  0
  -18.9285   14.5654   25.6641 C   0  0  0  0  0  0  0  0  0  0  0  0
  -17.9221   15.0421   26.7322 C   0  0  0  0  0  0  0  0  0  0  0  0
  -18.0058   14.2128   28.0435 C   0  0  0  0  0  0  0  0  0  0  0  0
  -19.4194   14.3044   28.6858 C   0  0  0  0  0  0  0  0  0  0  0  0
  -20.4830   14.2084   27.6351 C   0  0  0  0  0  0  0  0  0  0  0  0
  -17.5643   12.7889   27.7931 C   0  0  0  0  0  0  0  0  0  0  0  0
  -17.2769   12.3884   26.6320 O   0  0  0  0  0  0  0  0  0  0  0  0
  -17.4673   11.9076   28.8656 O   0  0  0  0  0  0  0  0  0  0  0  0
  -22.3457   14.7967   29.7084 H   0  0  0  0  0  0  0  0  0  0  0  0
  -23.6192   13.8282   28.8674 H   0  0  0  0  0  0  0  0  0  0  0  0
  -22.1822   12.9967   29.5811 H   0  0  0  0  0  0  0  0  0  0  0  0
  -18.5833   13.6076   25.2198 H   0  0  0  0  0  0  0  0  0  0  0  0
  -19.0064   15.3245   24.8568 H   0  0  0  0  0  0  0  0  0  0  0  0
  -16.8929   14.9951   26.3143 H   0  0  0  0  0  0  0  0  0  0  0  0
  -18.1295   16.1086   26.9709 H   0  0  0  0  0  0  0  0  0  0  0  0
  -17.2858   14.6480   28.7705 H   0  0  0  0  0  0  0  0  0  0  0  0
  -19.5587   13.5073   29.4473 H   0  0  0  0  0  0  0  0  0  0  0  0
  -19.5291   15.2833   29.1999 H   0  0  0  0  0  0  0  0  0  0  0  0
  -17.6512   12.2183   29.8122 H   0  0  0  0  0  0  0  0  0  0  0  0
  1  2  1  0
  2  3  1  0
  3  4  2  0
  4  5  1  0
  5  6  1  0
  6  7  1  0
  7  8  1  0
  8  9  1  0
  9 10  1  0
  8 11  1  0
 11 12  2  0
 11 13  1  0
 10  2  1  0
  5 10  2  0
  1 14  1  0
  1 15  1  0
  1 16  1  0
  6 17  1  0
  6 18  1  0
  7 19  1  0
  7 20  1  0
  8 21  1  0
  9 22  1  0
  9 23  1  0
 13 24  1  0
M  END
>  <CHROM.1>  (1) 
-4.59922148,-2.53648757,-2.97727150,0.13968208,1.69380739

>  <Name>  (1) 
F501

>  <RI>  (1) 
3.50902e+07

>  <Rbt.Current_Directory>  (1) 
/data/out

>  <Rbt.Executable>  (1) 
rbdock ($Id: //depot/dev/client3/rdock/2013.1/src/exe/rbdock.cxx#4 $)

>  <Rbt.Library>  (1) 
libRbt.so (2013.1, Build901 2013/11/27)

>  <Rbt.Parameter_File>  (1) 
/python_libraries/phenodiscovery/docking/templates/RDOCK_TETHER.conf

>  <Rbt.Receptor>  (1) 
/data/out/rdock-opt/grid/rdock-grid.prm

>  <SCORE>  (1) 
3.71523

>  <SCORE.INTER>  (1) 
2.18492

>  <SCORE.INTER.CONST>  (1) 
1

>  <SCORE.INTER.POLAR>  (1) 
0

>  <SCORE.INTER.REPUL>  (1) 
0

>  <SCORE.INTER.ROT>  (1) 
1

>  <SCORE.INTER.VDW>  (1) 
-4.21508

>  <SCORE.INTER.norm>  (1) 
0.168071

>  <SCORE.INTRA>  (1) 
1.53031

>  <SCORE.INTRA.DIHEDRAL>  (1) 
-0.0521368

>  <SCORE.INTRA.DIHEDRAL.0>  (1) 
0.67751

>  <SCORE.INTRA.POLAR>  (1) 
0

>  <SCORE.INTRA.POLAR.0>  (1) 
0

>  <SCORE.INTRA.REPUL>  (1) 
0

>  <SCORE.INTRA.REPUL.0>  (1) 
0

>  <SCORE.INTRA.VDW>  (1) 
1.55637

>  <SCORE.INTRA.VDW.0>  (1) 
-0.996134

>  <SCORE.INTRA.norm>  (1) 
0.117716

>  <SCORE.RESTR>  (1) 
0

>  <SCORE.RESTR.CAVITY>  (1) 
0

>  <SCORE.RESTR.norm>  (1) 
0

>  <SCORE.SYSTEM>  (1) 
0

>  <SCORE.SYSTEM.CONST>  (1) 
0

>  <SCORE.SYSTEM.DIHEDRAL>  (1) 
0

>  <SCORE.SYSTEM.norm>  (1) 
0

>  <SCORE.heavy>  (1) 
13

>  <SCORE.norm>  (1) 
0.285787

>  <TETHERED ATOMS>  (1) 
5,6,7,8,2,10,9,3,4

>  <skeledock_score>  (1) 
46

$$$$
