F503
     RDKit          3D

 29 30  0  0  0  0  0  0  0  0999 V2000
  -23.8879   17.9195   28.6205 C   0  0  0  0  0  0  0  0  0  0  0  0
  -22.9351   16.9134   28.1631 N   0  0  0  0  0  0  0  0  0  0  0  0
  -22.4862   15.8238   28.9811 C   0  0  0  0  0  0  0  0  0  0  0  0
  -22.9157   15.6851   30.1584 O   0  0  0  0  0  0  0  0  0  0  0  0
  -21.4497   14.8703   28.4564 C   0  0  0  0  0  0  0  0  0  0  0  0
  -20.0282   15.3922   28.1874 C   0  0  0  0  0  0  0  0  0  0  0  0
  -19.3519   14.6191   27.0810 C   0  0  0  0  0  0  0  0  0  0  0  0
  -18.5320   13.5191   27.3899 C   0  0  0  0  0  0  0  0  0  0  0  0
  -17.9070   12.7953   26.3703 C   0  0  0  0  0  0  0  0  0  0  0  0
  -18.0926   13.1621   25.0357 C   0  0  0  0  0  0  0  0  0  0  0  0
  -18.9058   14.2522   24.7175 C   0  0  0  0  0  0  0  0  0  0  0  0
  -19.5380   14.9782   25.7320 C   0  0  0  0  0  0  0  0  0  0  0  0
  -20.3388   16.0201   25.3962 F   0  0  0  0  0  0  0  0  0  0  0  0
  -21.9541   13.6953   27.6263 C   0  0  0  0  0  0  0  0  0  0  0  0
  -21.5152   13.4734   29.0662 C   0  0  0  0  0  0  0  0  0  0  0  0
  -24.7749   17.9155   27.9537 H   0  0  0  0  0  0  0  0  0  0  0  0
  -24.2234   17.7254   29.6605 H   0  0  0  0  0  0  0  0  0  0  0  0
  -23.4111   18.9209   28.5814 H   0  0  0  0  0  0  0  0  0  0  0  0
  -22.5535   17.0088   27.1952 H   0  0  0  0  0  0  0  0  0  0  0  0
  -19.3969   15.3409   29.1017 H   0  0  0  0  0  0  0  0  0  0  0  0
  -20.1063   16.4673   27.9151 H   0  0  0  0  0  0  0  0  0  0  0  0
  -18.3726   13.2230   28.4192 H   0  0  0  0  0  0  0  0  0  0  0  0
  -17.2762   11.9507   26.6157 H   0  0  0  0  0  0  0  0  0  0  0  0
  -17.6067   12.6012   24.2478 H   0  0  0  0  0  0  0  0  0  0  0  0
  -19.0504   14.5314   23.6817 H   0  0  0  0  0  0  0  0  0  0  0  0
  -21.2440   13.2770   26.8821 H   0  0  0  0  0  0  0  0  0  0  0  0
  -23.0549   13.6384   27.4854 H   0  0  0  0  0  0  0  0  0  0  0  0
  -20.5501   12.9293   29.1523 H   0  0  0  0  0  0  0  0  0  0  0  0
  -22.3643   13.2720   29.7546 H   0  0  0  0  0  0  0  0  0  0  0  0
  1  2  1  0
  2  3  1  0
  3  4  2  0
  3  5  1  0
  5  6  1  0
  6  7  1  0
  7  8  2  0
  8  9  1  0
  9 10  2  0
 10 11  1  0
 11 12  2  0
 12 13  1  0
  5 14  1  0
 14 15  1  0
 15  5  1  0
  7 12  1  0
  1 16  1  0
  1 17  1  0
  1 18  1  0
  2 19  1  0
  6 20  1  0
  6 21  1  0
  8 22  1  0
  9 23  1  0
 10 24  1  0
 11 25  1  0
 14 26  1  0
 14 27  1  0
 15 28  1  0
 15 29  1  0
M  END
>  <CHROM.1>  (1) 
65.95494342,-150.96999505,-93.59875780,-2.55743686,0.55424975,-1.31499860

>  <Name>  (1) 
F503

>  <RI>  (1) 
2.80164e+07

>  <Rbt.Current_Directory>  (1) 
/data/out

>  <Rbt.Executable>  (1) 
rbdock ($Id: //depot/dev/client3/rdock/2013.1/src/exe/rbdock.cxx#4 $)

>  <Rbt.Library>  (1) 
libRbt.so (2013.1, Build901 2013/11/27)

>  <Rbt.Parameter_File>  (1) 
/python_libraries/phenodiscovery/docking/templates/RDOCK_TETHER.conf

>  <Rbt.Receptor>  (1) 
/data/out/rdock-opt/grid/rdock-grid.prm

>  <SCORE>  (1) 
2.91444

>  <SCORE.INTER>  (1) 
-0.478755

>  <SCORE.INTER.CONST>  (1) 
1

>  <SCORE.INTER.POLAR>  (1) 
0

>  <SCORE.INTER.REPUL>  (1) 
0

>  <SCORE.INTER.ROT>  (1) 
3

>  <SCORE.INTER.VDW>  (1) 
-8.87875

>  <SCORE.INTER.norm>  (1) 
-0.031917

>  <SCORE.INTRA>  (1) 
3.3932

>  <SCORE.INTRA.DIHEDRAL>  (1) 
-0.272839

>  <SCORE.INTRA.DIHEDRAL.0>  (1) 
4.96666

>  <SCORE.INTRA.POLAR>  (1) 
0

>  <SCORE.INTRA.POLAR.0>  (1) 
0

>  <SCORE.INTRA.REPUL>  (1) 
0

>  <SCORE.INTRA.REPUL.0>  (1) 
0

>  <SCORE.INTRA.VDW>  (1) 
3.52962

>  <SCORE.INTRA.VDW.0>  (1) 
-2.98161

>  <SCORE.INTRA.norm>  (1) 
0.226213

>  <SCORE.RESTR>  (1) 
0

>  <SCORE.RESTR.CAVITY>  (1) 
0

>  <SCORE.RESTR.norm>  (1) 
0

>  <SCORE.SYSTEM>  (1) 
0

>  <SCORE.SYSTEM.CONST>  (1) 
0

>  <SCORE.SYSTEM.DIHEDRAL>  (1) 
0

>  <SCORE.SYSTEM.norm>  (1) 
0

>  <SCORE.heavy>  (1) 
15

>  <SCORE.norm>  (1) 
0.194296

>  <TETHERED ATOMS>  (1) 
5,6,7,8,12,11,10,9,14

>  <skeledock_score>  (1) 
57

$$$$
