F709
     RDKit          3D

 29 30  0  0  0  0  0  0  0  0999 V2000
  -18.1468   13.6880   24.4523 N   0  0  0  0  0  0  0  0  0  0  0  0
  -17.9797   13.0373   25.7154 C   0  0  0  0  0  0  0  0  0  0  0  0
  -17.6845   11.8120   25.7334 O   0  0  0  0  0  0  0  0  0  0  0  0
  -18.1401   13.7578   26.9548 N   0  0  0  0  0  0  0  0  0  0  0  0
  -18.1962   13.0210   28.2278 C   0  0  0  0  0  0  0  0  0  0  0  0
  -19.1504   13.7153   29.2066 C   0  0  0  0  0  0  0  0  0  0  0  0
  -18.9192   15.1659   29.2481 N   0  0  0  0  0  0  0  0  0  0  0  0
  -17.9126   15.7798   28.3813 C   0  0  0  0  0  0  0  0  0  0  0  0
  -18.0634   15.2276   26.9614 C   0  0  0  0  0  0  0  0  0  0  0  0
  -19.6755   15.9858   30.1481 C   0  0  0  0  0  0  0  0  0  0  0  0
  -19.0779   16.7533   30.9495 O   0  0  0  0  0  0  0  0  0  0  0  0
  -21.1429   15.9774   30.0940 C   0  0  0  0  0  0  0  0  0  0  0  0
  -22.0005   16.6113   30.9704 C   0  0  0  0  0  0  0  0  0  0  0  0
  -23.2697   16.3378   30.5043 C   0  0  0  0  0  0  0  0  0  0  0  0
  -23.1082   15.5606   29.3774 C   0  0  0  0  0  0  0  0  0  0  0  0
  -21.8309   15.3661   29.1585 O   0  0  0  0  0  0  0  0  0  0  0  0
  -17.9999   13.1529   23.5677 H   0  0  0  0  0  0  0  0  0  0  0  0
  -18.4482   14.6840   24.3803 H   0  0  0  0  0  0  0  0  0  0  0  0
  -17.1765   12.9742   28.6674 H   0  0  0  0  0  0  0  0  0  0  0  0
  -18.5541   11.9800   28.0719 H   0  0  0  0  0  0  0  0  0  0  0  0
  -20.1913   13.5085   28.8832 H   0  0  0  0  0  0  0  0  0  0  0  0
  -19.0069   13.2861   30.2217 H   0  0  0  0  0  0  0  0  0  0  0  0
  -18.0303   16.8858   28.3566 H   0  0  0  0  0  0  0  0  0  0  0  0
  -16.8987   15.5464   28.7725 H   0  0  0  0  0  0  0  0  0  0  0  0
  -18.9907   15.6428   26.5105 H   0  0  0  0  0  0  0  0  0  0  0  0
  -17.1905   15.5632   26.3602 H   0  0  0  0  0  0  0  0  0  0  0  0
  -21.7380   17.2012   31.8388 H   0  0  0  0  0  0  0  0  0  0  0  0
  -24.2048   16.6689   30.9357 H   0  0  0  0  0  0  0  0  0  0  0  0
  -23.9023   15.1659   28.7579 H   0  0  0  0  0  0  0  0  0  0  0  0
  1  2  1  0
  2  3  2  0
  2  4  1  0
  4  5  1  0
  5  6  1  0
  6  7  1  0
  7  8  1  0
  8  9  1  0
  7 10  1  0
 10 11  2  0
 10 12  1  0
 12 13  2  0
 13 14  1  0
 14 15  2  0
 15 16  1  0
  9  4  1  0
 16 12  1  0
  1 17  1  0
  1 18  1  0
  5 19  1  0
  5 20  1  0
  6 21  1  0
  6 22  1  0
  8 23  1  0
  8 24  1  0
  9 25  1  0
  9 26  1  0
 13 27  1  0
 14 28  1  0
 15 29  1  0
M  END
>  <CHROM.1>  (1) 
173.51024757,0.83132577,-0.03750941,-2.27473849

>  <Name>  (1) 
F709

>  <RI>  (1) 
1.96236e+07

>  <Rbt.Current_Directory>  (1) 
/data/out

>  <Rbt.Executable>  (1) 
rbdock ($Id: //depot/dev/client3/rdock/2013.1/src/exe/rbdock.cxx#4 $)

>  <Rbt.Library>  (1) 
libRbt.so (2013.1, Build901 2013/11/27)

>  <Rbt.Parameter_File>  (1) 
/python_libraries/phenodiscovery/docking/templates/RDOCK_TETHER.conf

>  <Rbt.Receptor>  (1) 
/data/out/rdock-opt/grid/rdock-grid.prm

>  <SCORE>  (1) 
-0.271581

>  <SCORE.INTER>  (1) 
-0.271971

>  <SCORE.INTER.CONST>  (1) 
1

>  <SCORE.INTER.POLAR>  (1) 
0

>  <SCORE.INTER.REPUL>  (1) 
0.100819

>  <SCORE.INTER.ROT>  (1) 
1

>  <SCORE.INTER.VDW>  (1) 
-7.17606

>  <SCORE.INTER.norm>  (1) 
-0.0169982

>  <SCORE.INTRA>  (1) 
0.000390774

>  <SCORE.INTRA.DIHEDRAL>  (1) 
0.00777693

>  <SCORE.INTRA.DIHEDRAL.0>  (1) 
0.255358

>  <SCORE.INTRA.POLAR>  (1) 
0

>  <SCORE.INTRA.POLAR.0>  (1) 
0

>  <SCORE.INTRA.REPUL>  (1) 
0

>  <SCORE.INTRA.REPUL.0>  (1) 
0

>  <SCORE.INTRA.VDW>  (1) 
-0.00349769

>  <SCORE.INTRA.VDW.0>  (1) 
-0.798714

>  <SCORE.INTRA.norm>  (1) 
2.44234e-05

>  <SCORE.RESTR>  (1) 
0

>  <SCORE.RESTR.CAVITY>  (1) 
0

>  <SCORE.RESTR.norm>  (1) 
0

>  <SCORE.SYSTEM>  (1) 
0

>  <SCORE.SYSTEM.CONST>  (1) 
0

>  <SCORE.SYSTEM.DIHEDRAL>  (1) 
0

>  <SCORE.SYSTEM.norm>  (1) 
0

>  <SCORE.heavy>  (1) 
16

>  <SCORE.norm>  (1) 
-0.0169738

>  <TETHERED ATOMS>  (1) 
2,4,9,6,3,7,10,12,16,15,14

>  <skeledock_score>  (1) 
38

$$$$
