F217
     RDKit          3D

 28 29  0  0  0  0  0  0  0  0999 V2000
  -20.7070   15.2178   24.8675 C   0  0  0  0  0  0  0  0  0  0  0  0
  -20.5210   15.3705   26.3459 C   0  0  0  0  0  0  0  0  0  0  0  0
  -21.1400   16.3560   27.0465 N   0  0  0  0  0  0  0  0  0  0  0  0
  -20.6508   16.2021   28.2882 C   0  0  0  0  0  0  0  0  0  0  0  0
  -20.9125   16.9980   29.4007 C   0  0  0  0  0  0  0  0  0  0  0  0
  -20.2333   16.6994   30.5953 C   0  0  0  0  0  0  0  0  0  0  0  0
  -19.3149   15.6280   30.6458 C   0  0  0  0  0  0  0  0  0  0  0  0
  -19.0663   14.8467   29.5021 C   0  0  0  0  0  0  0  0  0  0  0  0
  -19.7660   15.1622   28.3317 C   0  0  0  0  0  0  0  0  0  0  0  0
  -19.6772   14.6121   27.1040 N   0  0  0  0  0  0  0  0  0  0  0  0
  -18.7453   13.5707   26.6452 C   0  0  0  0  0  0  0  0  0  0  0  0
  -19.4707   12.2792   26.2328 C   0  0  0  0  0  0  0  0  0  0  0  0
  -19.7156   12.1439   24.7549 C   0  0  0  0  0  0  0  0  0  0  0  0
  -18.7617   12.1452   23.9322 O   0  0  0  0  0  0  0  0  0  0  0  0
  -21.0531   12.0222   24.2730 N   0  0  0  0  0  0  0  0  0  0  0  0
  -21.3336   16.0467   24.4762 H   0  0  0  0  0  0  0  0  0  0  0  0
  -21.2220   14.2640   24.6415 H   0  0  0  0  0  0  0  0  0  0  0  0
  -19.7241   15.2488   24.3540 H   0  0  0  0  0  0  0  0  0  0  0  0
  -21.6066   17.8267   29.3458 H   0  0  0  0  0  0  0  0  0  0  0  0
  -20.4114   17.2979   31.4793 H   0  0  0  0  0  0  0  0  0  0  0  0
  -18.7933   15.4104   31.5687 H   0  0  0  0  0  0  0  0  0  0  0  0
  -18.3521   14.0366   29.5435 H   0  0  0  0  0  0  0  0  0  0  0  0
  -17.9901   13.3394   27.4246 H   0  0  0  0  0  0  0  0  0  0  0  0
  -18.1766   13.9544   25.7715 H   0  0  0  0  0  0  0  0  0  0  0  0
  -20.4558   12.2546   26.7458 H   0  0  0  0  0  0  0  0  0  0  0  0
  -18.9008   11.3958   26.5790 H   0  0  0  0  0  0  0  0  0  0  0  0
  -21.8592   12.0231   24.9368 H   0  0  0  0  0  0  0  0  0  0  0  0
  -21.2391   11.9303   23.2498 H   0  0  0  0  0  0  0  0  0  0  0  0
  1  2  1  0
  2  3  2  0
  3  4  1  0
  4  5  2  0
  5  6  1  0
  6  7  2  0
  7  8  1  0
  8  9  2  0
  9 10  1  0
 10 11  1  0
 11 12  1  0
 12 13  1  0
 13 14  2  0
 13 15  1  0
 10  2  1  0
  4  9  1  0
  1 16  1  0
  1 17  1  0
  1 18  1  0
  5 19  1  0
  6 20  1  0
  7 21  1  0
  8 22  1  0
 11 23  1  0
 11 24  1  0
 12 25  1  0
 12 26  1  0
 15 27  1  0
 15 28  1  0
M  END
>  <CHROM.1>  (1) 
-73.63770800,97.45827616,59.17508218,1.75590330,-0.85320332,0.99795799

>  <Name>  (1) 
F217

>  <RI>  (1) 
3.15073e+07

>  <Rbt.Current_Directory>  (1) 
/data/out

>  <Rbt.Executable>  (1) 
rbdock ($Id: //depot/dev/client3/rdock/2013.1/src/exe/rbdock.cxx#4 $)

>  <Rbt.Library>  (1) 
libRbt.so (2013.1, Build901 2013/11/27)

>  <Rbt.Parameter_File>  (1) 
/python_libraries/phenodiscovery/docking/templates/RDOCK_TETHER.conf

>  <Rbt.Receptor>  (1) 
/data/out/rdock-opt/grid/rdock-grid.prm

>  <SCORE>  (1) 
1.32629

>  <SCORE.INTER>  (1) 
-3.05029

>  <SCORE.INTER.CONST>  (1) 
1

>  <SCORE.INTER.POLAR>  (1) 
-1.47454

>  <SCORE.INTER.REPUL>  (1) 
0

>  <SCORE.INTER.ROT>  (1) 
3

>  <SCORE.INTER.VDW>  (1) 
-6.43687

>  <SCORE.INTER.norm>  (1) 
-0.203353

>  <SCORE.INTRA>  (1) 
4.37503

>  <SCORE.INTRA.DIHEDRAL>  (1) 
5.63933

>  <SCORE.INTRA.DIHEDRAL.0>  (1) 
3.26935

>  <SCORE.INTRA.POLAR>  (1) 
0

>  <SCORE.INTRA.POLAR.0>  (1) 
0

>  <SCORE.INTRA.REPUL>  (1) 
0

>  <SCORE.INTRA.REPUL.0>  (1) 
0

>  <SCORE.INTRA.VDW>  (1) 
1.55537

>  <SCORE.INTRA.VDW.0>  (1) 
-0.301128

>  <SCORE.INTRA.norm>  (1) 
0.291669

>  <SCORE.RESTR>  (1) 
0.00154897

>  <SCORE.RESTR.CAVITY>  (1) 
0.00154897

>  <SCORE.RESTR.norm>  (1) 
0.000103265

>  <SCORE.SYSTEM>  (1) 
0

>  <SCORE.SYSTEM.CONST>  (1) 
0

>  <SCORE.SYSTEM.DIHEDRAL>  (1) 
0

>  <SCORE.SYSTEM.norm>  (1) 
0

>  <SCORE.heavy>  (1) 
15

>  <SCORE.norm>  (1) 
0.0884192

>  <TETHERED ATOMS>  (1) 
4,5,6,7,8,9,10,11,12,13

>  <skeledock_score>  (1) 
50

$$$$
