F616
     RDKit          3D

 26 26  0  0  0  0  0  0  0  0999 V2000
  -17.8347   11.7412   23.3486 C   0  0  0  0  0  0  0  0  0  0  0  0
  -18.9010   12.0858   24.7327 S   0  0  0  0  0  0  0  0  0  0  0  0
  -18.8581   10.9339   25.6981 O   0  0  0  0  0  0  0  0  0  0  0  0
  -20.3072   12.2499   24.2290 O   0  0  0  0  0  0  0  0  0  0  0  0
  -18.4131   13.5513   25.5275 N   0  0  0  0  0  0  0  0  0  0  0  0
  -19.1740   13.7280   26.7662 C   0  0  0  0  0  0  0  0  0  0  0  0
  -18.7521   15.0302   27.4540 C   0  0  0  0  0  0  0  0  0  0  0  0
  -19.4367   15.1941   28.7866 C   0  0  0  0  0  0  0  0  0  0  0  0
  -18.8296   14.7232   29.9634 C   0  0  0  0  0  0  0  0  0  0  0  0
  -19.4589   14.8987   31.1999 C   0  0  0  0  0  0  0  0  0  0  0  0
  -20.6964   15.5445   31.2718 C   0  0  0  0  0  0  0  0  0  0  0  0
  -21.3048   15.7129   32.4717 F   0  0  0  0  0  0  0  0  0  0  0  0
  -21.3057   16.0183   30.1067 C   0  0  0  0  0  0  0  0  0  0  0  0
  -20.6784   15.8482   28.8689 C   0  0  0  0  0  0  0  0  0  0  0  0
  -16.8338   11.4297   23.7113 H   0  0  0  0  0  0  0  0  0  0  0  0
  -18.2703   10.9216   22.7407 H   0  0  0  0  0  0  0  0  0  0  0  0
  -17.7351   12.6511   22.7217 H   0  0  0  0  0  0  0  0  0  0  0  0
  -18.6597   14.3343   24.8786 H   0  0  0  0  0  0  0  0  0  0  0  0
  -18.9686   12.8818   27.4569 H   0  0  0  0  0  0  0  0  0  0  0  0
  -20.2642   13.7589   26.5450 H   0  0  0  0  0  0  0  0  0  0  0  0
  -19.0083   15.8986   26.8085 H   0  0  0  0  0  0  0  0  0  0  0  0
  -17.6470   15.0248   27.5810 H   0  0  0  0  0  0  0  0  0  0  0  0
  -17.8710   14.2210   29.9257 H   0  0  0  0  0  0  0  0  0  0  0  0
  -18.9861   14.5328   32.1023 H   0  0  0  0  0  0  0  0  0  0  0  0
  -22.2621   16.5222   30.1621 H   0  0  0  0  0  0  0  0  0  0  0  0
  -21.1563   16.2326   27.9765 H   0  0  0  0  0  0  0  0  0  0  0  0
  1  2  1  0
  2  3  2  0
  2  4  2  0
  2  5  1  0
  5  6  1  0
  6  7  1  0
  7  8  1  0
  8  9  2  0
  9 10  1  0
 10 11  2  0
 11 12  1  0
 11 13  1  0
 13 14  2  0
  8 14  1  0
  1 15  1  0
  1 16  1  0
  1 17  1  0
  5 18  1  0
  6 19  1  0
  6 20  1  0
  7 21  1  0
  7 22  1  0
  9 23  1  0
 10 24  1  0
 13 25  1  0
 14 26  1  0
M  END
>  <CHROM.1>  (1) 
-172.21633332,-179.30864224,-175.59933794,91.79069448,1.27988173,0.64111473
-1.89107096

>  <Name>  (1) 
F616

>  <RI>  (1) 
3.75692e+07

>  <Rbt.Current_Directory>  (1) 
/data/out

>  <Rbt.Executable>  (1) 
rbdock ($Id: //depot/dev/client3/rdock/2013.1/src/exe/rbdock.cxx#4 $)

>  <Rbt.Library>  (1) 
libRbt.so (2013.1, Build901 2013/11/27)

>  <Rbt.Parameter_File>  (1) 
/python_libraries/phenodiscovery/docking/templates/RDOCK_TETHER.conf

>  <Rbt.Receptor>  (1) 
/data/out/rdock-opt/grid/rdock-grid.prm

>  <SCORE>  (1) 
0.544289

>  <SCORE.INTER>  (1) 
0.845753

>  <SCORE.INTER.CONST>  (1) 
1

>  <SCORE.INTER.POLAR>  (1) 
0

>  <SCORE.INTER.REPUL>  (1) 
0

>  <SCORE.INTER.ROT>  (1) 
4

>  <SCORE.INTER.VDW>  (1) 
-8.55425

>  <SCORE.INTER.norm>  (1) 
0.0604109

>  <SCORE.INTRA>  (1) 
-0.301463

>  <SCORE.INTRA.DIHEDRAL>  (1) 
0.188892

>  <SCORE.INTRA.DIHEDRAL.0>  (1) 
0.754837

>  <SCORE.INTRA.POLAR>  (1) 
0

>  <SCORE.INTRA.POLAR.0>  (1) 
0

>  <SCORE.INTRA.REPUL>  (1) 
0

>  <SCORE.INTRA.REPUL.0>  (1) 
0

>  <SCORE.INTRA.VDW>  (1) 
-0.39591

>  <SCORE.INTRA.VDW.0>  (1) 
-0.564021

>  <SCORE.INTRA.norm>  (1) 
-0.0215331

>  <SCORE.RESTR>  (1) 
0

>  <SCORE.RESTR.CAVITY>  (1) 
0

>  <SCORE.RESTR.norm>  (1) 
0

>  <SCORE.SYSTEM>  (1) 
0

>  <SCORE.SYSTEM.CONST>  (1) 
0

>  <SCORE.SYSTEM.DIHEDRAL>  (1) 
0

>  <SCORE.SYSTEM.norm>  (1) 
0

>  <SCORE.heavy>  (1) 
14

>  <SCORE.norm>  (1) 
0.0388778

>  <TETHERED ATOMS>  (1) 
7,8,9,10,11,13,14,2,5,6

>  <skeledock_score>  (1) 
53

$$$$
