F309
     RDKit          3D

 15 15  0  0  0  0  0  0  0  0999 V2000
  -21.0510   16.4170   26.5529 C   0  0  0  0  0  0  0  0  0  0  0  0
  -20.0665   15.3056   26.7617 C   0  0  0  0  0  0  0  0  0  0  0  0
  -19.2864   15.2020   27.9260 C   0  0  0  0  0  0  0  0  0  0  0  0
  -18.4338   14.1066   27.9354 C   0  0  0  0  0  0  0  0  0  0  0  0
  -18.6467   13.2646   26.4987 S   0  0  0  0  0  0  0  0  0  0  0  0
  -19.8221   14.2765   25.8446 C   0  0  0  0  0  0  0  0  0  0  0  0
  -20.4512   14.0680   24.5281 C   0  0  0  0  0  0  0  0  0  0  0  0
  -20.8944   15.0562   23.8844 O   0  0  0  0  0  0  0  0  0  0  0  0
  -20.5626   12.7922   23.9845 O   0  0  0  0  0  0  0  0  0  0  0  0
  -22.0709   15.9968   26.4289 H   0  0  0  0  0  0  0  0  0  0  0  0
  -20.7739   16.9994   25.6496 H   0  0  0  0  0  0  0  0  0  0  0  0
  -21.0608   17.1065   27.4236 H   0  0  0  0  0  0  0  0  0  0  0  0
  -19.3391   15.9074   28.7452 H   0  0  0  0  0  0  0  0  0  0  0  0
  -17.7515   13.8434   28.7322 H   0  0  0  0  0  0  0  0  0  0  0  0
  -21.0210   12.6444   23.0933 H   0  0  0  0  0  0  0  0  0  0  0  0
  1  2  1  0
  2  3  1  0
  3  4  2  0
  4  5  1  0
  5  6  1  0
  6  7  1  0
  7  8  2  0
  7  9  1  0
  2  6  2  0
  1 10  1  0
  1 11  1  0
  1 12  1  0
  3 13  1  0
  4 14  1  0
  9 15  1  0
M  END
>  <CHROM.1>  (1) 
27.47439397,178.04256647,0.84006198,-0.79599810,0.91002110

>  <Name>  (1) 
F309

>  <RI>  (1) 
1.01994e+07

>  <Rbt.Current_Directory>  (1) 
/data/out

>  <Rbt.Executable>  (1) 
rbdock ($Id: //depot/dev/client3/rdock/2013.1/src/exe/rbdock.cxx#4 $)

>  <Rbt.Library>  (1) 
libRbt.so (2013.1, Build901 2013/11/27)

>  <Rbt.Parameter_File>  (1) 
/python_libraries/phenodiscovery/docking/templates/RDOCK_TETHER.conf

>  <Rbt.Receptor>  (1) 
/data/out/rdock-opt/grid/rdock-grid.prm

>  <SCORE>  (1) 
-0.49287

>  <SCORE.INTER>  (1) 
-1.63024

>  <SCORE.INTER.CONST>  (1) 
1

>  <SCORE.INTER.POLAR>  (1) 
-0.203381

>  <SCORE.INTER.REPUL>  (1) 
0

>  <SCORE.INTER.ROT>  (1) 
1

>  <SCORE.INTER.VDW>  (1) 
-7.33875

>  <SCORE.INTER.norm>  (1) 
-0.181138

>  <SCORE.INTRA>  (1) 
1.13737

>  <SCORE.INTRA.DIHEDRAL>  (1) 
2.4547

>  <SCORE.INTRA.DIHEDRAL.0>  (1) 
1.63707e-06

>  <SCORE.INTRA.POLAR>  (1) 
0

>  <SCORE.INTRA.POLAR.0>  (1) 
0

>  <SCORE.INTRA.REPUL>  (1) 
0

>  <SCORE.INTRA.REPUL.0>  (1) 
0

>  <SCORE.INTRA.VDW>  (1) 
-0.0899772

>  <SCORE.INTRA.VDW.0>  (1) 
-0.680767

>  <SCORE.INTRA.norm>  (1) 
0.126375

>  <SCORE.RESTR>  (1) 
0

>  <SCORE.RESTR.CAVITY>  (1) 
0

>  <SCORE.RESTR.norm>  (1) 
0

>  <SCORE.SYSTEM>  (1) 
0

>  <SCORE.SYSTEM.CONST>  (1) 
0

>  <SCORE.SYSTEM.DIHEDRAL>  (1) 
0

>  <SCORE.SYSTEM.norm>  (1) 
0

>  <SCORE.heavy>  (1) 
9

>  <SCORE.norm>  (1) 
-0.0547633

>  <TETHERED ATOMS>  (1) 
3,2,6,7,5,4

>  <skeledock_score>  (1) 
31

$$$$
