F389
     RDKit          3D

 18 18  0  0  0  0  0  0  0  0999 V2000
  -20.9064   19.3063   26.4095 C   0  0  0  0  0  0  0  0  0  0  0  0
  -21.8442   18.1100   26.4138 C   0  0  0  0  0  0  0  0  0  0  0  0
  -21.2705   17.0573   27.1810 O   0  0  0  0  0  0  0  0  0  0  0  0
  -21.1612   17.1178   28.5719 C   0  0  0  0  0  0  0  0  0  0  0  0
  -21.6812   18.0712   29.2140 O   0  0  0  0  0  0  0  0  0  0  0  0
  -20.4271   16.0719   29.2894 C   0  0  0  0  0  0  0  0  0  0  0  0
  -19.7563   14.9987   28.7380 C   0  0  0  0  0  0  0  0  0  0  0  0
  -19.2342   14.2520   29.7298 N   0  0  0  0  0  0  0  0  0  0  0  0
  -19.5556   14.8230   30.8804 N   0  0  0  0  0  0  0  0  0  0  0  0
  -20.2814   15.9317   30.6524 C   0  0  0  0  0  0  0  0  0  0  0  0
  -19.9305   19.0217   25.9621 H   0  0  0  0  0  0  0  0  0  0  0  0
  -21.3512   20.1296   25.8118 H   0  0  0  0  0  0  0  0  0  0  0  0
  -20.7414   19.6627   27.4484 H   0  0  0  0  0  0  0  0  0  0  0  0
  -22.8191   18.4094   26.8566 H   0  0  0  0  0  0  0  0  0  0  0  0
  -22.0072   17.7678   25.3687 H   0  0  0  0  0  0  0  0  0  0  0  0
  -19.6577   14.7698   27.6851 H   0  0  0  0  0  0  0  0  0  0  0  0
  -19.2802   14.4524   31.8165 H   0  0  0  0  0  0  0  0  0  0  0  0
  -20.6769   16.5815   31.4222 H   0  0  0  0  0  0  0  0  0  0  0  0
  1  2  1  0
  2  3  1  0
  3  4  1  0
  4  5  2  0
  4  6  1  0
  6  7  1  0
  7  8  2  0
  8  9  1  0
  9 10  1  0
  6 10  2  0
  1 11  1  0
  1 12  1  0
  1 13  1  0
  2 14  1  0
  2 15  1  0
  7 16  1  0
  9 17  1  0
 10 18  1  0
M  END
>  <CHROM.1>  (1) 
70.98250086,6.31665627,2.37049730,-2.44054685,-0.99492995,1.48886271

>  <Name>  (1) 
F389

>  <RI>  (1) 
2.04932e+07

>  <Rbt.Current_Directory>  (1) 
/data/out

>  <Rbt.Executable>  (1) 
rbdock ($Id: //depot/dev/client3/rdock/2013.1/src/exe/rbdock.cxx#4 $)

>  <Rbt.Library>  (1) 
libRbt.so (2013.1, Build901 2013/11/27)

>  <Rbt.Parameter_File>  (1) 
/python_libraries/phenodiscovery/docking/templates/RDOCK_TETHER.conf

>  <Rbt.Receptor>  (1) 
/data/out/rdock-opt/grid/rdock-grid.prm

>  <SCORE>  (1) 
5.01054

>  <SCORE.INTER>  (1) 
4.49342

>  <SCORE.INTER.CONST>  (1) 
1

>  <SCORE.INTER.POLAR>  (1) 
0

>  <SCORE.INTER.REPUL>  (1) 
0

>  <SCORE.INTER.ROT>  (1) 
3

>  <SCORE.INTER.VDW>  (1) 
-3.90658

>  <SCORE.INTER.norm>  (1) 
0.449342

>  <SCORE.INTRA>  (1) 
0.517128

>  <SCORE.INTRA.DIHEDRAL>  (1) 
0.872302

>  <SCORE.INTRA.DIHEDRAL.0>  (1) 
0.0530761

>  <SCORE.INTRA.POLAR>  (1) 
0

>  <SCORE.INTRA.POLAR.0>  (1) 
0

>  <SCORE.INTRA.REPUL>  (1) 
0

>  <SCORE.INTRA.REPUL.0>  (1) 
0

>  <SCORE.INTRA.VDW>  (1) 
0.0809772

>  <SCORE.INTRA.VDW.0>  (1) 
-0.881201

>  <SCORE.INTRA.norm>  (1) 
0.0517128

>  <SCORE.RESTR>  (1) 
0

>  <SCORE.RESTR.CAVITY>  (1) 
0

>  <SCORE.RESTR.norm>  (1) 
0

>  <SCORE.SYSTEM>  (1) 
0

>  <SCORE.SYSTEM.CONST>  (1) 
0

>  <SCORE.SYSTEM.DIHEDRAL>  (1) 
0

>  <SCORE.SYSTEM.norm>  (1) 
0

>  <SCORE.heavy>  (1) 
10

>  <SCORE.norm>  (1) 
0.501054

>  <TETHERED ATOMS>  (1) 
2,3,4,6,10,9,8,7

>  <skeledock_score>  (1) 
37

$$$$
