F393
     RDKit          3D

 24 24  0  0  0  0  0  0  0  0999 V2000
  -18.8270   13.5511   24.2930 C   0  0  0  0  0  0  0  0  0  0  0  0
  -18.7500   12.9161   25.6712 C   0  0  0  0  0  0  0  0  0  0  0  0
  -19.1166   13.8729   26.6600 O   0  0  0  0  0  0  0  0  0  0  0  0
  -19.0675   13.5939   28.0301 C   0  0  0  0  0  0  0  0  0  0  0  0
  -18.6342   12.4780   28.4306 O   0  0  0  0  0  0  0  0  0  0  0  0
  -19.4828   14.5890   28.9822 N   0  0  0  0  0  0  0  0  0  0  0  0
  -18.9106   14.5715   30.3340 C   0  0  0  0  0  0  0  0  0  0  0  0
  -19.7985   15.3548   31.3042 C   0  0  0  0  0  0  0  0  0  0  0  0
  -20.1079   16.6332   30.7863 O   0  0  0  0  0  0  0  0  0  0  0  0
  -20.9066   16.4915   29.6289 C   0  0  0  0  0  0  0  0  0  0  0  0
  -20.1147   15.8224   28.5016 C   0  0  0  0  0  0  0  0  0  0  0  0
  -18.1344   14.4174   24.2351 H   0  0  0  0  0  0  0  0  0  0  0  0
  -19.8628   13.8982   24.0929 H   0  0  0  0  0  0  0  0  0  0  0  0
  -18.5400   12.8069   23.5204 H   0  0  0  0  0  0  0  0  0  0  0  0
  -19.4389   12.0450   25.7180 H   0  0  0  0  0  0  0  0  0  0  0  0
  -17.7093   12.5689   25.8519 H   0  0  0  0  0  0  0  0  0  0  0  0
  -17.8986   15.0306   30.3058 H   0  0  0  0  0  0  0  0  0  0  0  0
  -18.8163   13.5293   30.7086 H   0  0  0  0  0  0  0  0  0  0  0  0
  -19.2507   15.4849   32.2613 H   0  0  0  0  0  0  0  0  0  0  0  0
  -20.7236   14.7789   31.5370 H   0  0  0  0  0  0  0  0  0  0  0  0
  -21.2214   17.5013   29.2912 H   0  0  0  0  0  0  0  0  0  0  0  0
  -21.8369   15.9178   29.8462 H   0  0  0  0  0  0  0  0  0  0  0  0
  -19.3276   16.5176   28.1374 H   0  0  0  0  0  0  0  0  0  0  0  0
  -20.8100   15.5996   27.6628 H   0  0  0  0  0  0  0  0  0  0  0  0
  1  2  1  0
  2  3  1  0
  3  4  1  0
  4  5  2  0
  4  6  1  0
  6  7  1  0
  7  8  1  0
  8  9  1  0
  9 10  1  0
 10 11  1  0
 11  6  1  0
  1 12  1  0
  1 13  1  0
  1 14  1  0
  2 15  1  0
  2 16  1  0
  7 17  1  0
  7 18  1  0
  8 19  1  0
  8 20  1  0
 10 21  1  0
 10 22  1  0
 11 23  1  0
 11 24  1  0
M  END
>  <CHROM.1>  (1) 
-176.39202407,2.96211238,-1.22367608,-0.95155432,1.44609024

>  <Name>  (1) 
F393

>  <RI>  (1) 
2.92789e+07

>  <Rbt.Current_Directory>  (1) 
/data/out

>  <Rbt.Executable>  (1) 
rbdock ($Id: //depot/dev/client3/rdock/2013.1/src/exe/rbdock.cxx#4 $)

>  <Rbt.Library>  (1) 
libRbt.so (2013.1, Build901 2013/11/27)

>  <Rbt.Parameter_File>  (1) 
/python_libraries/phenodiscovery/docking/templates/RDOCK_TETHER.conf

>  <Rbt.Receptor>  (1) 
/data/out/rdock-opt/grid/rdock-grid.prm

>  <SCORE>  (1) 
1.3786

>  <SCORE.INTER>  (1) 
1.37906

>  <SCORE.INTER.CONST>  (1) 
1

>  <SCORE.INTER.POLAR>  (1) 
0

>  <SCORE.INTER.REPUL>  (1) 
0

>  <SCORE.INTER.ROT>  (1) 
2

>  <SCORE.INTER.VDW>  (1) 
-6.02094

>  <SCORE.INTER.norm>  (1) 
0.125369

>  <SCORE.INTRA>  (1) 
-0.000453439

>  <SCORE.INTRA.DIHEDRAL>  (1) 
-0.0202067

>  <SCORE.INTRA.DIHEDRAL.0>  (1) 
0.116816

>  <SCORE.INTRA.POLAR>  (1) 
0

>  <SCORE.INTRA.POLAR.0>  (1) 
0

>  <SCORE.INTRA.REPUL>  (1) 
0

>  <SCORE.INTRA.REPUL.0>  (1) 
0

>  <SCORE.INTRA.VDW>  (1) 
0.00964993

>  <SCORE.INTRA.VDW.0>  (1) 
-0.426402

>  <SCORE.INTRA.norm>  (1) 
-4.12217e-05

>  <SCORE.RESTR>  (1) 
0

>  <SCORE.RESTR.CAVITY>  (1) 
0

>  <SCORE.RESTR.norm>  (1) 
0

>  <SCORE.SYSTEM>  (1) 
0

>  <SCORE.SYSTEM.CONST>  (1) 
0

>  <SCORE.SYSTEM.DIHEDRAL>  (1) 
0

>  <SCORE.SYSTEM.norm>  (1) 
0

>  <SCORE.heavy>  (1) 
11

>  <SCORE.norm>  (1) 
0.125328

>  <TETHERED ATOMS>  (1) 
4,1,2,11,7,10,8

>  <skeledock_score>  (1) 
36

$$$$
