F603
     RDKit          3D

 24 25  0  0  0  0  0  0  0  0999 V2000
  -16.0431   11.3251   21.3939 C   0  0  0  0  0  0  0  0  0  0  0  0
  -16.2419   12.2227   22.9163 S   0  0  0  0  0  0  0  0  0  0  0  0
  -16.4071   13.6851   22.6113 O   0  0  0  0  0  0  0  0  0  0  0  0
  -15.0224   12.0253   23.7722 O   0  0  0  0  0  0  0  0  0  0  0  0
  -17.6836   11.6161   23.7743 C   0  0  0  0  0  0  0  0  0  0  0  0
  -18.0694   12.5493   24.8767 C   0  0  0  0  0  0  0  0  0  0  0  0
  -17.2629   13.5550   25.3122 N   0  0  0  0  0  0  0  0  0  0  0  0
  -17.9822   14.0999   26.3096 C   0  0  0  0  0  0  0  0  0  0  0  0
  -17.6223   15.1569   27.1425 C   0  0  0  0  0  0  0  0  0  0  0  0
  -18.5265   15.5262   28.1573 C   0  0  0  0  0  0  0  0  0  0  0  0
  -19.7522   14.8372   28.3098 C   0  0  0  0  0  0  0  0  0  0  0  0
  -20.0852   13.7757   27.4473 C   0  0  0  0  0  0  0  0  0  0  0  0
  -19.1665   13.4409   26.4560 C   0  0  0  0  0  0  0  0  0  0  0  0
  -19.2422   12.4588   25.5508 N   0  0  0  0  0  0  0  0  0  0  0  0
  -16.9420   11.4672   20.7592 H   0  0  0  0  0  0  0  0  0  0  0  0
  -15.9146   10.2452   21.6136 H   0  0  0  0  0  0  0  0  0  0  0  0
  -15.1486   11.7003   20.8553 H   0  0  0  0  0  0  0  0  0  0  0  0
  -18.5269   11.5199   23.0590 H   0  0  0  0  0  0  0  0  0  0  0  0
  -17.4559   10.6112   24.1882 H   0  0  0  0  0  0  0  0  0  0  0  0
  -16.6769   15.6696   27.0220 H   0  0  0  0  0  0  0  0  0  0  0  0
  -18.2800   16.3400   28.8266 H   0  0  0  0  0  0  0  0  0  0  0  0
  -20.4383   15.1271   29.0950 H   0  0  0  0  0  0  0  0  0  0  0  0
  -21.0169   13.2359   27.5564 H   0  0  0  0  0  0  0  0  0  0  0  0
  -20.0133   11.7673   25.4157 H   0  0  0  0  0  0  0  0  0  0  0  0
  1  2  1  0
  2  3  2  0
  2  4  2  0
  2  5  1  0
  5  6  1  0
  6  7  2  0
  7  8  1  0
  8  9  2  0
  9 10  1  0
 10 11  2  0
 11 12  1  0
 12 13  2  0
 13 14  1  0
 14  6  1  0
  8 13  1  0
  1 15  1  0
  1 16  1  0
  1 17  1  0
  5 18  1  0
  5 19  1  0
  9 20  1  0
 10 21  1  0
 11 22  1  0
 12 23  1  0
 14 24  1  0
M  END
>  <CHROM.1>  (1) 
-166.44197693,-12.30066783,-1.78032784,-0.44437476,-2.36340552

>  <Name>  (1) 
F603

>  <RI>  (1) 
1.00601e+07

>  <Rbt.Current_Directory>  (1) 
/data/out

>  <Rbt.Executable>  (1) 
rbdock ($Id: //depot/dev/client3/rdock/2013.1/src/exe/rbdock.cxx#4 $)

>  <Rbt.Library>  (1) 
libRbt.so (2013.1, Build901 2013/11/27)

>  <Rbt.Parameter_File>  (1) 
/python_libraries/phenodiscovery/docking/templates/RDOCK_TETHER.conf

>  <Rbt.Receptor>  (1) 
/data/out/rdock-opt/grid/rdock-grid.prm

>  <SCORE>  (1) 
-4.91716

>  <SCORE.INTER>  (1) 
-5.18533

>  <SCORE.INTER.CONST>  (1) 
1

>  <SCORE.INTER.POLAR>  (1) 
0

>  <SCORE.INTER.REPUL>  (1) 
0.0241461

>  <SCORE.INTER.ROT>  (1) 
2

>  <SCORE.INTER.VDW>  (1) 
-12.7061

>  <SCORE.INTER.norm>  (1) 
-0.370381

>  <SCORE.INTRA>  (1) 
0.268167

>  <SCORE.INTRA.DIHEDRAL>  (1) 
0.386233

>  <SCORE.INTRA.DIHEDRAL.0>  (1) 
1.36495

>  <SCORE.INTRA.POLAR>  (1) 
0

>  <SCORE.INTRA.POLAR.0>  (1) 
0

>  <SCORE.INTRA.REPUL>  (1) 
0

>  <SCORE.INTRA.REPUL.0>  (1) 
0

>  <SCORE.INTRA.VDW>  (1) 
0.0750502

>  <SCORE.INTRA.VDW.0>  (1) 
-1.80623

>  <SCORE.INTRA.norm>  (1) 
0.0191548

>  <SCORE.RESTR>  (1) 
0

>  <SCORE.RESTR.CAVITY>  (1) 
0

>  <SCORE.RESTR.norm>  (1) 
0

>  <SCORE.SYSTEM>  (1) 
0

>  <SCORE.SYSTEM.CONST>  (1) 
0

>  <SCORE.SYSTEM.DIHEDRAL>  (1) 
0

>  <SCORE.SYSTEM.norm>  (1) 
0

>  <SCORE.heavy>  (1) 
14

>  <SCORE.norm>  (1) 
-0.351226

>  <TETHERED ATOMS>  (1) 
8,9,10,11,12,13,14,5,6

>  <skeledock_score>  (1) 
47

$$$$
