F421
     RDKit          3D

 19 19  0  0  0  0  0  0  0  0999 V2000
  -19.9359   13.0747   26.9235 C   0  0  0  0  0  0  0  0  0  0  0  0
  -19.8387   14.4632   26.4681 N   0  0  0  0  0  0  0  0  0  0  0  0
  -20.1720   14.7861   25.0809 C   0  0  0  0  0  0  0  0  0  0  0  0
  -19.3284   15.4973   27.3285 C   0  0  0  0  0  0  0  0  0  0  0  0
  -18.5523   16.3714   26.8560 O   0  0  0  0  0  0  0  0  0  0  0  0
  -19.7053   15.5731   28.7524 C   0  0  0  0  0  0  0  0  0  0  0  0
  -20.9755   15.6388   29.2971 C   0  0  0  0  0  0  0  0  0  0  0  0
  -20.8758   15.7349   30.6375 N   0  0  0  0  0  0  0  0  0  0  0  0
  -19.5893   15.7356   30.9493 N   0  0  0  0  0  0  0  0  0  0  0  0
  -18.8497   15.6474   29.8305 C   0  0  0  0  0  0  0  0  0  0  0  0
  -19.3511   12.4173   26.2458 H   0  0  0  0  0  0  0  0  0  0  0  0
  -20.9982   12.7525   26.9158 H   0  0  0  0  0  0  0  0  0  0  0  0
  -19.5269   12.9530   27.9485 H   0  0  0  0  0  0  0  0  0  0  0  0
  -20.5672   13.8948   24.5476 H   0  0  0  0  0  0  0  0  0  0  0  0
  -20.9478   15.5804   25.0586 H   0  0  0  0  0  0  0  0  0  0  0  0
  -19.2658   15.1425   24.5472 H   0  0  0  0  0  0  0  0  0  0  0  0
  -21.9122   15.6328   28.7563 H   0  0  0  0  0  0  0  0  0  0  0  0
  -19.2217   15.8039   31.9239 H   0  0  0  0  0  0  0  0  0  0  0  0
  -17.7676   15.6376   29.8056 H   0  0  0  0  0  0  0  0  0  0  0  0
  1  2  1  0
  2  3  1  0
  2  4  1  0
  4  5  2  0
  4  6  1  0
  6  7  1  0
  7  8  2  0
  8  9  1  0
  9 10  1  0
  6 10  2  0
  1 11  1  0
  1 12  1  0
  1 13  1  0
  3 14  1  0
  3 15  1  0
  3 16  1  0
  7 17  1  0
  9 18  1  0
 10 19  1  0
M  END
>  <CHROM.1>  (1) 
-55.56198572,1.49314197,-0.39199026,-2.00914385

>  <Name>  (1) 
F421

>  <RI>  (1) 
2.24335e+07

>  <Rbt.Current_Directory>  (1) 
/data/out

>  <Rbt.Executable>  (1) 
rbdock ($Id: //depot/dev/client3/rdock/2013.1/src/exe/rbdock.cxx#4 $)

>  <Rbt.Library>  (1) 
libRbt.so (2013.1, Build901 2013/11/27)

>  <Rbt.Parameter_File>  (1) 
/python_libraries/phenodiscovery/docking/templates/RDOCK_TETHER.conf

>  <Rbt.Receptor>  (1) 
/data/out/rdock-opt/grid/rdock-grid.prm

>  <SCORE>  (1) 
4.08812

>  <SCORE.INTER>  (1) 
1.27452

>  <SCORE.INTER.CONST>  (1) 
1

>  <SCORE.INTER.POLAR>  (1) 
0

>  <SCORE.INTER.REPUL>  (1) 
0.0145788

>  <SCORE.INTER.ROT>  (1) 
1

>  <SCORE.INTER.VDW>  (1) 
-5.19838

>  <SCORE.INTER.norm>  (1) 
0.127452

>  <SCORE.INTRA>  (1) 
2.8136

>  <SCORE.INTRA.DIHEDRAL>  (1) 
6.18751

>  <SCORE.INTRA.DIHEDRAL.0>  (1) 
1.37289

>  <SCORE.INTRA.POLAR>  (1) 
0

>  <SCORE.INTRA.POLAR.0>  (1) 
0

>  <SCORE.INTRA.REPUL>  (1) 
0

>  <SCORE.INTRA.REPUL.0>  (1) 
0

>  <SCORE.INTRA.VDW>  (1) 
-0.280151

>  <SCORE.INTRA.VDW.0>  (1) 
-1.00469

>  <SCORE.INTRA.norm>  (1) 
0.28136

>  <SCORE.RESTR>  (1) 
0

>  <SCORE.RESTR.CAVITY>  (1) 
0

>  <SCORE.RESTR.norm>  (1) 
0

>  <SCORE.SYSTEM>  (1) 
0

>  <SCORE.SYSTEM.CONST>  (1) 
0

>  <SCORE.SYSTEM.DIHEDRAL>  (1) 
0

>  <SCORE.SYSTEM.norm>  (1) 
0

>  <SCORE.heavy>  (1) 
10

>  <SCORE.norm>  (1) 
0.408812

>  <TETHERED ATOMS>  (1) 
2,4,6,10,1,9,8,7

>  <skeledock_score>  (1) 
45

$$$$
