F229
     RDKit          3D

 27 28  0  0  0  0  0  0  0  0999 V2000
  -17.6044   15.3292   25.6862 C   0  0  0  0  0  0  0  0  0  0  0  0
  -18.4405   14.2835   25.0275 C   0  0  0  0  0  0  0  0  0  0  0  0
  -18.0213   13.5342   23.9890 N   0  0  0  0  0  0  0  0  0  0  0  0
  -19.0034   12.7052   23.6716 N   0  0  0  0  0  0  0  0  0  0  0  0
  -20.0515   12.9039   24.4906 C   0  0  0  0  0  0  0  0  0  0  0  0
  -19.7323   13.9205   25.3676 C   0  0  0  0  0  0  0  0  0  0  0  0
  -20.5734   14.4249   26.5025 C   0  0  0  0  0  0  0  0  0  0  0  0
  -20.2307   13.7300   27.7439 N   0  0  0  0  0  0  0  0  0  0  0  0
  -20.0475   14.3834   29.0164 C   0  0  0  0  0  0  0  0  0  0  0  0
  -19.1042   13.9196   29.9555 C   0  0  0  0  0  0  0  0  0  0  0  0
  -18.9612   14.5594   31.1905 C   0  0  0  0  0  0  0  0  0  0  0  0
  -19.7466   15.6710   31.4999 C   0  0  0  0  0  0  0  0  0  0  0  0
  -20.6796   16.1443   30.5758 C   0  0  0  0  0  0  0  0  0  0  0  0
  -20.8351   15.5041   29.3419 C   0  0  0  0  0  0  0  0  0  0  0  0
  -21.7500   15.9824   28.4614 F   0  0  0  0  0  0  0  0  0  0  0  0
  -17.4731   15.0805   26.7599 H   0  0  0  0  0  0  0  0  0  0  0  0
  -16.6058   15.3820   25.2040 H   0  0  0  0  0  0  0  0  0  0  0  0
  -18.0991   16.3181   25.5951 H   0  0  0  0  0  0  0  0  0  0  0  0
  -18.9512   12.0010   22.9030 H   0  0  0  0  0  0  0  0  0  0  0  0
  -20.9765   12.3431   24.4560 H   0  0  0  0  0  0  0  0  0  0  0  0
  -20.3721   15.5108   26.6228 H   0  0  0  0  0  0  0  0  0  0  0  0
  -21.6568   14.3147   26.2890 H   0  0  0  0  0  0  0  0  0  0  0  0
  -20.1793   12.6869   27.7020 H   0  0  0  0  0  0  0  0  0  0  0  0
  -18.4831   13.0607   29.7491 H   0  0  0  0  0  0  0  0  0  0  0  0
  -18.2378   14.1935   31.9077 H   0  0  0  0  0  0  0  0  0  0  0  0
  -19.6315   16.1662   32.4554 H   0  0  0  0  0  0  0  0  0  0  0  0
  -21.2866   17.0073   30.8179 H   0  0  0  0  0  0  0  0  0  0  0  0
  1  2  1  0
  2  3  2  0
  3  4  1  0
  4  5  1  0
  5  6  2  0
  6  7  1  0
  7  8  1  0
  8  9  1  0
  9 10  2  0
 10 11  1  0
 11 12  2  0
 12 13  1  0
 13 14  2  0
 14 15  1  0
  6  2  1  0
  9 14  1  0
  1 16  1  0
  1 17  1  0
  1 18  1  0
  4 19  1  0
  5 20  1  0
  7 21  1  0
  7 22  1  0
  8 23  1  0
 10 24  1  0
 11 25  1  0
 12 26  1  0
 13 27  1  0
M  END
>  <CHROM.1>  (1) 
-81.89451363,135.41992451,-145.94483176,1.76361029,0.23352797,1.33843527

>  <Name>  (1) 
F229

>  <RI>  (1) 
1.62976e+07

>  <Rbt.Current_Directory>  (1) 
/data/out

>  <Rbt.Executable>  (1) 
rbdock ($Id: //depot/dev/client3/rdock/2013.1/src/exe/rbdock.cxx#4 $)

>  <Rbt.Library>  (1) 
libRbt.so (2013.1, Build901 2013/11/27)

>  <Rbt.Parameter_File>  (1) 
/python_libraries/phenodiscovery/docking/templates/RDOCK_TETHER.conf

>  <Rbt.Receptor>  (1) 
/data/out/rdock-opt/grid/rdock-grid.prm

>  <SCORE>  (1) 
1.20813

>  <SCORE.INTER>  (1) 
-1.12929

>  <SCORE.INTER.CONST>  (1) 
1

>  <SCORE.INTER.POLAR>  (1) 
0

>  <SCORE.INTER.REPUL>  (1) 
0

>  <SCORE.INTER.ROT>  (1) 
3

>  <SCORE.INTER.VDW>  (1) 
-9.52929

>  <SCORE.INTER.norm>  (1) 
-0.0752862

>  <SCORE.INTRA>  (1) 
2.33742

>  <SCORE.INTRA.DIHEDRAL>  (1) 
4.02657

>  <SCORE.INTRA.DIHEDRAL.0>  (1) 
4.61436

>  <SCORE.INTRA.POLAR>  (1) 
0

>  <SCORE.INTRA.POLAR.0>  (1) 
0

>  <SCORE.INTRA.REPUL>  (1) 
0

>  <SCORE.INTRA.REPUL.0>  (1) 
0

>  <SCORE.INTRA.VDW>  (1) 
0.324133

>  <SCORE.INTRA.VDW.0>  (1) 
-1.5838

>  <SCORE.INTRA.norm>  (1) 
0.155828

>  <SCORE.RESTR>  (1) 
0

>  <SCORE.RESTR.CAVITY>  (1) 
0

>  <SCORE.RESTR.norm>  (1) 
0

>  <SCORE.SYSTEM>  (1) 
0

>  <SCORE.SYSTEM.CONST>  (1) 
0

>  <SCORE.SYSTEM.DIHEDRAL>  (1) 
0

>  <SCORE.SYSTEM.norm>  (1) 
0

>  <SCORE.heavy>  (1) 
15

>  <SCORE.norm>  (1) 
0.0805417

>  <TETHERED ATOMS>  (1) 
9,14,13,12,11,1,2,6,7,8

>  <skeledock_score>  (1) 
45

$$$$
