F618
     RDKit          3D

 26 26  0  0  0  0  0  0  0  0999 V2000
  -17.1941   12.2969   24.7183 C   0  0  0  0  0  0  0  0  0  0  0  0
  -18.6349   11.8518   24.4439 C   0  0  0  0  0  0  0  0  0  0  0  0
  -18.8838   10.4318   24.9813 C   0  0  0  0  0  0  0  0  0  0  0  0
  -18.1308    9.4917   24.2634 O   0  0  0  0  0  0  0  0  0  0  0  0
  -19.5947   12.8180   25.0127 N   0  0  0  0  0  0  0  0  0  0  0  0
  -20.9269   12.9866   24.4269 C   0  0  0  0  0  0  0  0  0  0  0  0
  -19.2522   13.6163   26.1569 C   0  0  0  0  0  0  0  0  0  0  0  0
  -19.2331   13.0529   27.3965 N   0  0  0  0  0  0  0  0  0  0  0  0
  -18.9199   13.7716   28.5074 C   0  0  0  0  0  0  0  0  0  0  0  0
  -18.6085   15.1283   28.3977 C   0  0  0  0  0  0  0  0  0  0  0  0
  -18.6228   15.7323   27.1393 C   0  0  0  0  0  0  0  0  0  0  0  0
  -18.9470   14.9781   26.0096 C   0  0  0  0  0  0  0  0  0  0  0  0
  -18.9431   15.5602   24.7844 F   0  0  0  0  0  0  0  0  0  0  0  0
  -17.0367   13.3246   24.3278 H   0  0  0  0  0  0  0  0  0  0  0  0
  -16.4800   11.6150   24.2093 H   0  0  0  0  0  0  0  0  0  0  0  0
  -16.9775   12.2901   25.8079 H   0  0  0  0  0  0  0  0  0  0  0  0
  -18.7505   11.8088   23.3383 H   0  0  0  0  0  0  0  0  0  0  0  0
  -19.9588   10.1682   24.8966 H   0  0  0  0  0  0  0  0  0  0  0  0
  -18.6195   10.3838   26.0626 H   0  0  0  0  0  0  0  0  0  0  0  0
  -17.1791    9.6534   24.4956 H   0  0  0  0  0  0  0  0  0  0  0  0
  -21.0405   14.0177   24.0327 H   0  0  0  0  0  0  0  0  0  0  0  0
  -21.1030   12.2732   23.5950 H   0  0  0  0  0  0  0  0  0  0  0  0
  -21.7005   12.8077   25.2033 H   0  0  0  0  0  0  0  0  0  0  0  0
  -18.9135   13.2896   29.4758 H   0  0  0  0  0  0  0  0  0  0  0  0
  -18.3579   15.7051   29.2785 H   0  0  0  0  0  0  0  0  0  0  0  0
  -18.3800   16.7824   27.0404 H   0  0  0  0  0  0  0  0  0  0  0  0
  1  2  1  0
  2  3  1  0
  3  4  1  0
  2  5  1  0
  5  6  1  0
  5  7  1  0
  7  8  2  0
  8  9  1  0
  9 10  2  0
 10 11  1  0
 11 12  2  0
 12 13  1  0
  7 12  1  0
  1 14  1  0
  1 15  1  0
  1 16  1  0
  2 17  1  0
  3 18  1  0
  3 19  1  0
  4 20  1  0
  6 21  1  0
  6 22  1  0
  6 23  1  0
  9 24  1  0
 10 25  1  0
 11 26  1  0
M  END
>  <CHROM.1>  (1) 
-66.76598358,68.77021101,152.43746782,-75.48141798,-1.20824458,-1.36151118
1.22360111

>  <Name>  (1) 
F618

>  <RI>  (1) 
8.94603e+06

>  <Rbt.Current_Directory>  (1) 
/data/out

>  <Rbt.Executable>  (1) 
rbdock ($Id: //depot/dev/client3/rdock/2013.1/src/exe/rbdock.cxx#4 $)

>  <Rbt.Library>  (1) 
libRbt.so (2013.1, Build901 2013/11/27)

>  <Rbt.Parameter_File>  (1) 
/python_libraries/phenodiscovery/docking/templates/RDOCK_TETHER.conf

>  <Rbt.Receptor>  (1) 
/data/out/rdock-opt/grid/rdock-grid.prm

>  <SCORE>  (1) 
-2.16046

>  <SCORE.INTER>  (1) 
-2.18847

>  <SCORE.INTER.CONST>  (1) 
1

>  <SCORE.INTER.POLAR>  (1) 
-0.824621

>  <SCORE.INTER.REPUL>  (1) 
0

>  <SCORE.INTER.ROT>  (1) 
3

>  <SCORE.INTER.VDW>  (1) 
-7.78476

>  <SCORE.INTER.norm>  (1) 
-0.168344

>  <SCORE.INTRA>  (1) 
0.0280103

>  <SCORE.INTRA.DIHEDRAL>  (1) 
0.103678

>  <SCORE.INTRA.DIHEDRAL.0>  (1) 
14.9602

>  <SCORE.INTRA.POLAR>  (1) 
0

>  <SCORE.INTRA.POLAR.0>  (1) 
0

>  <SCORE.INTRA.REPUL>  (1) 
0

>  <SCORE.INTRA.REPUL.0>  (1) 
0

>  <SCORE.INTRA.VDW>  (1) 
-0.0238287

>  <SCORE.INTRA.VDW.0>  (1) 
-2.07816

>  <SCORE.INTRA.norm>  (1) 
0.00215464

>  <SCORE.RESTR>  (1) 
0

>  <SCORE.RESTR.CAVITY>  (1) 
0

>  <SCORE.RESTR.norm>  (1) 
0

>  <SCORE.SYSTEM>  (1) 
0

>  <SCORE.SYSTEM.CONST>  (1) 
0

>  <SCORE.SYSTEM.DIHEDRAL>  (1) 
0

>  <SCORE.SYSTEM.norm>  (1) 
0

>  <SCORE.heavy>  (1) 
13

>  <SCORE.norm>  (1) 
-0.166189

>  <TETHERED ATOMS>  (1) 
2,5,7,12,11,10,9,1

>  <skeledock_score>  (1) 
42

$$$$
