F584
     RDKit          3D

 27 28  0  0  0  0  0  0  0  0999 V2000
  -21.9635   18.9290   28.4312 C   0  0  0  0  0  0  0  0  0  0  0  0
  -21.1061   17.9546   27.8451 O   0  0  0  0  0  0  0  0  0  0  0  0
  -21.4806   16.6331   27.5396 C   0  0  0  0  0  0  0  0  0  0  0  0
  -22.7462   16.1376   27.8990 C   0  0  0  0  0  0  0  0  0  0  0  0
  -23.1102   14.8367   27.5794 C   0  0  0  0  0  0  0  0  0  0  0  0
  -22.2175   14.0071   26.9127 C   0  0  0  0  0  0  0  0  0  0  0  0
  -20.9346   14.4539   26.5562 C   0  0  0  0  0  0  0  0  0  0  0  0
  -20.0832   13.5071   25.8869 N   0  0  0  0  0  0  0  0  0  0  0  0
  -18.7162   13.2764   26.2394 C   0  0  0  0  0  0  0  0  0  0  0  0
  -18.2873   12.0937   26.3074 O   0  0  0  0  0  0  0  0  0  0  0  0
  -17.7747   14.4050   26.4814 C   0  0  0  0  0  0  0  0  0  0  0  0
  -18.2123   15.6352   25.6913 C   0  0  0  0  0  0  0  0  0  0  0  0
  -19.2430   16.4624   26.4564 C   0  0  0  0  0  0  0  0  0  0  0  0
  -20.5583   15.8014   26.8528 C   0  0  0  0  0  0  0  0  0  0  0  0
  -22.3073   18.5845   29.4292 H   0  0  0  0  0  0  0  0  0  0  0  0
  -22.8349   19.1187   27.7694 H   0  0  0  0  0  0  0  0  0  0  0  0
  -21.4013   19.8768   28.5573 H   0  0  0  0  0  0  0  0  0  0  0  0
  -23.4626   16.7560   28.4216 H   0  0  0  0  0  0  0  0  0  0  0  0
  -24.0897   14.4666   27.8541 H   0  0  0  0  0  0  0  0  0  0  0  0
  -22.5229   12.9931   26.6850 H   0  0  0  0  0  0  0  0  0  0  0  0
  -20.5524   12.7262   25.3732 H   0  0  0  0  0  0  0  0  0  0  0  0
  -16.7609   14.1039   26.1373 H   0  0  0  0  0  0  0  0  0  0  0  0
  -17.7146   14.6203   27.5703 H   0  0  0  0  0  0  0  0  0  0  0  0
  -18.6011   15.3611   24.6850 H   0  0  0  0  0  0  0  0  0  0  0  0
  -17.3199   16.2775   25.5233 H   0  0  0  0  0  0  0  0  0  0  0  0
  -19.4802   17.3477   25.8264 H   0  0  0  0  0  0  0  0  0  0  0  0
  -18.7534   16.8460   27.3791 H   0  0  0  0  0  0  0  0  0  0  0  0
  1  2  1  0
  2  3  1  0
  3  4  2  0
  4  5  1  0
  5  6  2  0
  6  7  1  0
  7  8  1  0
  8  9  1  0
  9 10  2  0
  9 11  1  0
 11 12  1  0
 12 13  1  0
 13 14  1  0
  3 14  1  0
 14  7  2  0
  1 15  1  0
  1 16  1  0
  1 17  1  0
  4 18  1  0
  5 19  1  0
  6 20  1  0
  8 21  1  0
 11 22  1  0
 11 23  1  0
 12 24  1  0
 12 25  1  0
 13 26  1  0
 13 27  1  0
M  END
>  <CHROM.1>  (1) 
-5.02910630,1.72686706,0.04084677,-0.00855795

>  <Name>  (1) 
F584

>  <RI>  (1) 
2.25468e+07

>  <Rbt.Current_Directory>  (1) 
/data/out

>  <Rbt.Executable>  (1) 
rbdock ($Id: //depot/dev/client3/rdock/2013.1/src/exe/rbdock.cxx#4 $)

>  <Rbt.Library>  (1) 
libRbt.so (2013.1, Build901 2013/11/27)

>  <Rbt.Parameter_File>  (1) 
/python_libraries/phenodiscovery/docking/templates/RDOCK_TETHER.conf

>  <Rbt.Receptor>  (1) 
/data/out/rdock-opt/grid/rdock-grid.prm

>  <SCORE>  (1) 
9.36087

>  <SCORE.INTER>  (1) 
9.31702

>  <SCORE.INTER.CONST>  (1) 
1

>  <SCORE.INTER.POLAR>  (1) 
-0.158975

>  <SCORE.INTER.REPUL>  (1) 
0

>  <SCORE.INTER.ROT>  (1) 
1

>  <SCORE.INTER.VDW>  (1) 
3.45753

>  <SCORE.INTER.norm>  (1) 
0.665501

>  <SCORE.INTRA>  (1) 
0.04385

>  <SCORE.INTRA.DIHEDRAL>  (1) 
0.038853

>  <SCORE.INTRA.DIHEDRAL.0>  (1) 
2.85622e-05

>  <SCORE.INTRA.POLAR>  (1) 
0

>  <SCORE.INTRA.POLAR.0>  (1) 
0

>  <SCORE.INTRA.REPUL>  (1) 
0

>  <SCORE.INTRA.REPUL.0>  (1) 
0

>  <SCORE.INTRA.VDW>  (1) 
0.0244235

>  <SCORE.INTRA.VDW.0>  (1) 
0.144246

>  <SCORE.INTRA.norm>  (1) 
0.00313214

>  <SCORE.RESTR>  (1) 
0

>  <SCORE.RESTR.CAVITY>  (1) 
0

>  <SCORE.RESTR.norm>  (1) 
0

>  <SCORE.SYSTEM>  (1) 
0

>  <SCORE.SYSTEM.CONST>  (1) 
0

>  <SCORE.SYSTEM.DIHEDRAL>  (1) 
0

>  <SCORE.SYSTEM.norm>  (1) 
0

>  <SCORE.heavy>  (1) 
14

>  <SCORE.norm>  (1) 
0.668634

>  <TETHERED ATOMS>  (1) 
7,8,9,10,11,12,13

>  <skeledock_score>  (1) 
36

$$$$
