F274
     RDKit          3D

 26 27  0  0  0  0  0  0  0  0999 V2000
  -22.1212   14.6454   30.3108 C   0  0  0  0  0  0  0  0  0  0  0  0
  -20.7432   14.7239   29.7437 C   0  0  0  0  0  0  0  0  0  0  0  0
  -20.3383   14.2425   28.5165 C   0  0  0  0  0  0  0  0  0  0  0  0
  -18.9982   14.5633   28.4757 C   0  0  0  0  0  0  0  0  0  0  0  0
  -18.0562   14.2895   27.3440 C   0  0  0  0  0  0  0  0  0  0  0  0
  -18.7836   13.7385   26.1922 N   0  0  0  0  0  0  0  0  0  0  0  0
  -18.6378   12.4355   25.9250 N   0  0  0  0  0  0  0  0  0  0  0  0
  -19.2584   11.8328   24.8766 C   0  0  0  0  0  0  0  0  0  0  0  0
  -19.0536   10.3736   24.6237 C   0  0  0  0  0  0  0  0  0  0  0  0
  -20.0647   12.5952   24.0322 C   0  0  0  0  0  0  0  0  0  0  0  0
  -20.2160   13.9539   24.2870 C   0  0  0  0  0  0  0  0  0  0  0  0
  -19.5606   14.5250   25.3792 C   0  0  0  0  0  0  0  0  0  0  0  0
  -19.6888   15.7606   25.5964 O   0  0  0  0  0  0  0  0  0  0  0  0
  -18.6730   15.1834   29.5865 O   0  0  0  0  0  0  0  0  0  0  0  0
  -19.7012   15.2956   30.3776 N   0  0  0  0  0  0  0  0  0  0  0  0
  -22.8062   14.1322   29.6031 H   0  0  0  0  0  0  0  0  0  0  0  0
  -22.5018   15.6702   30.5028 H   0  0  0  0  0  0  0  0  0  0  0  0
  -22.0976   14.0794   31.2652 H   0  0  0  0  0  0  0  0  0  0  0  0
  -20.9304   13.7387   27.7635 H   0  0  0  0  0  0  0  0  0  0  0  0
  -17.2876   13.5569   27.6722 H   0  0  0  0  0  0  0  0  0  0  0  0
  -17.5248   15.2317   27.0931 H   0  0  0  0  0  0  0  0  0  0  0  0
  -20.0360    9.8623   24.5439 H   0  0  0  0  0  0  0  0  0  0  0  0
  -18.4793    9.9113   25.4545 H   0  0  0  0  0  0  0  0  0  0  0  0
  -18.4902   10.2346   23.6772 H   0  0  0  0  0  0  0  0  0  0  0  0
  -20.5654   12.1429   23.1850 H   0  0  0  0  0  0  0  0  0  0  0  0
  -20.8344   14.5600   23.6362 H   0  0  0  0  0  0  0  0  0  0  0  0
  1  2  1  0
  2  3  1  0
  3  4  2  0
  4  5  1  0
  5  6  1  0
  6  7  1  0
  7  8  2  0
  8  9  1  0
  8 10  1  0
 10 11  2  0
 11 12  1  0
 12 13  2  0
  4 14  1  0
 14 15  1  0
  2 15  2  0
 12  6  1  0
  1 16  1  0
  1 17  1  0
  1 18  1  0
  3 19  1  0
  5 20  1  0
  5 21  1  0
  9 22  1  0
  9 23  1  0
  9 24  1  0
 10 25  1  0
 11 26  1  0
M  END
>  <CHROM.1>  (1) 
5.71608523,-106.41180263,1.65005915,-0.35177095,1.51268232

>  <Name>  (1) 
F274

>  <RI>  (1) 
3.82698e+07

>  <Rbt.Current_Directory>  (1) 
/data/out

>  <Rbt.Executable>  (1) 
rbdock ($Id: //depot/dev/client3/rdock/2013.1/src/exe/rbdock.cxx#4 $)

>  <Rbt.Library>  (1) 
libRbt.so (2013.1, Build901 2013/11/27)

>  <Rbt.Parameter_File>  (1) 
/python_libraries/phenodiscovery/docking/templates/RDOCK_TETHER.conf

>  <Rbt.Receptor>  (1) 
/data/out/rdock-opt/grid/rdock-grid.prm

>  <SCORE>  (1) 
-1.0963

>  <SCORE.INTER>  (1) 
0.16661

>  <SCORE.INTER.CONST>  (1) 
1

>  <SCORE.INTER.POLAR>  (1) 
0

>  <SCORE.INTER.REPUL>  (1) 
0.00772776

>  <SCORE.INTER.ROT>  (1) 
2

>  <SCORE.INTER.VDW>  (1) 
-7.27203

>  <SCORE.INTER.norm>  (1) 
0.0111074

>  <SCORE.INTRA>  (1) 
-1.26291

>  <SCORE.INTRA.DIHEDRAL>  (1) 
-0.86343

>  <SCORE.INTRA.DIHEDRAL.0>  (1) 
3.52069

>  <SCORE.INTRA.POLAR>  (1) 
0

>  <SCORE.INTRA.POLAR.0>  (1) 
0

>  <SCORE.INTRA.REPUL>  (1) 
0

>  <SCORE.INTRA.REPUL.0>  (1) 
0

>  <SCORE.INTRA.VDW>  (1) 
-0.831199

>  <SCORE.INTRA.VDW.0>  (1) 
-0.606677

>  <SCORE.INTRA.norm>  (1) 
-0.0841943

>  <SCORE.RESTR>  (1) 
0

>  <SCORE.RESTR.CAVITY>  (1) 
0

>  <SCORE.RESTR.norm>  (1) 
0

>  <SCORE.SYSTEM>  (1) 
0

>  <SCORE.SYSTEM.CONST>  (1) 
0

>  <SCORE.SYSTEM.DIHEDRAL>  (1) 
0

>  <SCORE.SYSTEM.norm>  (1) 
0

>  <SCORE.heavy>  (1) 
15

>  <SCORE.norm>  (1) 
-0.0730869

>  <TETHERED ATOMS>  (1) 
2,3,4,5,6,12,11,13,15

>  <skeledock_score>  (1) 
35

$$$$
