F529
     RDKit          3D

 23 23  0  0  0  0  0  0  0  0999 V2000
  -22.9925   17.0470   29.7197 C   0  0  0  0  0  0  0  0  0  0  0  0
  -22.0249   16.2977   28.9232 N   0  0  0  0  0  0  0  0  0  0  0  0
  -20.9347   15.5412   29.4958 C   0  0  0  0  0  0  0  0  0  0  0  0
  -20.7218   15.5525   30.8914 C   0  0  0  0  0  0  0  0  0  0  0  0
  -19.6565   14.8539   31.4597 C   0  0  0  0  0  0  0  0  0  0  0  0
  -18.7855   14.1297   30.6518 C   0  0  0  0  0  0  0  0  0  0  0  0
  -18.9786   14.0963   29.2722 C   0  0  0  0  0  0  0  0  0  0  0  0
  -20.0475   14.7882   28.6772 C   0  0  0  0  0  0  0  0  0  0  0  0
  -20.2153   14.6961   26.9147 S   0  0  0  0  0  0  0  0  0  0  0  0
  -18.9536   15.1577   26.2431 O   0  0  0  0  0  0  0  0  0  0  0  0
  -21.3380   15.5865   26.4597 O   0  0  0  0  0  0  0  0  0  0  0  0
  -20.5955   13.0256   26.4295 C   0  0  0  0  0  0  0  0  0  0  0  0
  -23.7582   17.5009   29.0555 H   0  0  0  0  0  0  0  0  0  0  0  0
  -22.4799   17.8632   30.2706 H   0  0  0  0  0  0  0  0  0  0  0  0
  -23.5026   16.3665   30.4337 H   0  0  0  0  0  0  0  0  0  0  0  0
  -22.1566   16.3396   27.8911 H   0  0  0  0  0  0  0  0  0  0  0  0
  -21.3708   16.1089   31.5529 H   0  0  0  0  0  0  0  0  0  0  0  0
  -19.5048   14.8773   32.5313 H   0  0  0  0  0  0  0  0  0  0  0  0
  -17.9577   13.5919   31.0956 H   0  0  0  0  0  0  0  0  0  0  0  0
  -18.2832   13.5288   28.6678 H   0  0  0  0  0  0  0  0  0  0  0  0
  -20.6792   12.9707   25.3245 H   0  0  0  0  0  0  0  0  0  0  0  0
  -21.5598   12.7201   26.8855 H   0  0  0  0  0  0  0  0  0  0  0  0
  -19.7984   12.3353   26.7709 H   0  0  0  0  0  0  0  0  0  0  0  0
  1  2  1  0
  2  3  1  0
  3  4  2  0
  4  5  1  0
  5  6  2  0
  6  7  1  0
  7  8  2  0
  8  9  1  0
  9 10  2  0
  9 11  2  0
  9 12  1  0
  3  8  1  0
  1 13  1  0
  1 14  1  0
  1 15  1  0
  2 16  1  0
  4 17  1  0
  5 18  1  0
  6 19  1  0
  7 20  1  0
 12 21  1  0
 12 22  1  0
 12 23  1  0
M  END
>  <CHROM.1>  (1) 
-3.13222638,123.03194228,1.60503440,-0.48731210,1.58487980

>  <Name>  (1) 
F529

>  <RI>  (1) 
1.12678e+07

>  <Rbt.Current_Directory>  (1) 
/data/out

>  <Rbt.Executable>  (1) 
rbdock ($Id: //depot/dev/client3/rdock/2013.1/src/exe/rbdock.cxx#4 $)

>  <Rbt.Library>  (1) 
libRbt.so (2013.1, Build901 2013/11/27)

>  <Rbt.Parameter_File>  (1) 
/python_libraries/phenodiscovery/docking/templates/RDOCK_TETHER.conf

>  <Rbt.Receptor>  (1) 
/data/out/rdock-opt/grid/rdock-grid.prm

>  <SCORE>  (1) 
-0.441823

>  <SCORE.INTER>  (1) 
1.3431

>  <SCORE.INTER.CONST>  (1) 
1

>  <SCORE.INTER.POLAR>  (1) 
0

>  <SCORE.INTER.REPUL>  (1) 
0

>  <SCORE.INTER.ROT>  (1) 
2

>  <SCORE.INTER.VDW>  (1) 
-6.0569

>  <SCORE.INTER.norm>  (1) 
0.111925

>  <SCORE.INTRA>  (1) 
-1.78492

>  <SCORE.INTRA.DIHEDRAL>  (1) 
-0.205363

>  <SCORE.INTRA.DIHEDRAL.0>  (1) 
1.44525

>  <SCORE.INTRA.POLAR>  (1) 
-0.525902

>  <SCORE.INTRA.POLAR.0>  (1) 
-0.00362875

>  <SCORE.INTRA.REPUL>  (1) 
0

>  <SCORE.INTRA.REPUL.0>  (1) 
0

>  <SCORE.INTRA.VDW>  (1) 
0.105824

>  <SCORE.INTRA.VDW.0>  (1) 
-0.98994

>  <SCORE.INTRA.norm>  (1) 
-0.148744

>  <SCORE.RESTR>  (1) 
0

>  <SCORE.RESTR.CAVITY>  (1) 
0

>  <SCORE.RESTR.norm>  (1) 
0

>  <SCORE.SYSTEM>  (1) 
0

>  <SCORE.SYSTEM.CONST>  (1) 
0

>  <SCORE.SYSTEM.DIHEDRAL>  (1) 
0

>  <SCORE.SYSTEM.norm>  (1) 
0

>  <SCORE.heavy>  (1) 
12

>  <SCORE.norm>  (1) 
-0.0368186

>  <TETHERED ATOMS>  (1) 
3,8,7,6,4,5,9,10

>  <skeledock_score>  (1) 
45

$$$$
