F535
     RDKit          3D

 22 23  0  0  0  0  0  0  0  0999 V2000
  -17.1442   14.0895   24.2332 C   0  0  0  0  0  0  0  0  0  0  0  0
  -17.2081   12.6368   24.0729 N   0  0  0  0  0  0  0  0  0  0  0  0
  -17.5584   12.0032   25.3458 C   0  0  0  0  0  0  0  0  0  0  0  0
  -18.9066   12.4717   25.7925 C   0  0  0  0  0  0  0  0  0  0  0  0
  -20.0709   11.9045   25.4024 N   0  0  0  0  0  0  0  0  0  0  0  0
  -21.0528   12.5181   26.0570 N   0  0  0  0  0  0  0  0  0  0  0  0
  -20.4622   13.4438   26.8345 C   0  0  0  0  0  0  0  0  0  0  0  0
  -21.0881   14.2984   27.7349 C   0  0  0  0  0  0  0  0  0  0  0  0
  -20.2706   15.1660   28.4789 C   0  0  0  0  0  0  0  0  0  0  0  0
  -18.8723   15.1572   28.3019 C   0  0  0  0  0  0  0  0  0  0  0  0
  -18.2991   14.2669   27.3816 C   0  0  0  0  0  0  0  0  0  0  0  0
  -19.1315   13.4467   26.6894 N   0  0  0  0  0  0  0  0  0  0  0  0
  -18.1443   14.4924   24.5027 H   0  0  0  0  0  0  0  0  0  0  0  0
  -16.4023   14.3713   25.0129 H   0  0  0  0  0  0  0  0  0  0  0  0
  -16.8374   14.5521   23.2715 H   0  0  0  0  0  0  0  0  0  0  0  0
  -16.2536   12.3057   23.7962 H   0  0  0  0  0  0  0  0  0  0  0  0
  -16.8229   12.2767   26.1345 H   0  0  0  0  0  0  0  0  0  0  0  0
  -17.5650   10.8951   25.2363 H   0  0  0  0  0  0  0  0  0  0  0  0
  -22.1626   14.2919   27.8641 H   0  0  0  0  0  0  0  0  0  0  0  0
  -20.7179   15.8463   29.1918 H   0  0  0  0  0  0  0  0  0  0  0  0
  -18.2450   15.8259   28.8768 H   0  0  0  0  0  0  0  0  0  0  0  0
  -17.2267   14.2290   27.2398 H   0  0  0  0  0  0  0  0  0  0  0  0
  1  2  1  0
  2  3  1  0
  3  4  1  0
  4  5  2  0
  5  6  1  0
  6  7  2  0
  7  8  1  0
  8  9  2  0
  9 10  1  0
 10 11  2  0
 11 12  1  0
 12  4  1  0
 12  7  1  0
  1 13  1  0
  1 14  1  0
  1 15  1  0
  2 16  1  0
  3 17  1  0
  3 18  1  0
  8 19  1  0
  9 20  1  0
 10 21  1  0
 11 22  1  0
M  END
>  <CHROM.1>  (1) 
61.47387729,86.09957276,0.87917580,-0.57160239,-2.49650919

>  <Name>  (1) 
F535

>  <RI>  (1) 
2.678e+07

>  <Rbt.Current_Directory>  (1) 
/data/out

>  <Rbt.Executable>  (1) 
rbdock ($Id: //depot/dev/client3/rdock/2013.1/src/exe/rbdock.cxx#4 $)

>  <Rbt.Library>  (1) 
libRbt.so (2013.1, Build901 2013/11/27)

>  <Rbt.Parameter_File>  (1) 
/python_libraries/phenodiscovery/docking/templates/RDOCK_TETHER.conf

>  <Rbt.Receptor>  (1) 
/data/out/rdock-opt/grid/rdock-grid.prm

>  <SCORE>  (1) 
2.01083

>  <SCORE.INTER>  (1) 
0.755635

>  <SCORE.INTER.CONST>  (1) 
1

>  <SCORE.INTER.POLAR>  (1) 
-0.176055

>  <SCORE.INTER.REPUL>  (1) 
0

>  <SCORE.INTER.ROT>  (1) 
2

>  <SCORE.INTER.VDW>  (1) 
-6.04578

>  <SCORE.INTER.norm>  (1) 
0.0629696

>  <SCORE.INTRA>  (1) 
1.25519

>  <SCORE.INTRA.DIHEDRAL>  (1) 
-0.0692134

>  <SCORE.INTRA.DIHEDRAL.0>  (1) 
1.5008

>  <SCORE.INTRA.POLAR>  (1) 
0

>  <SCORE.INTRA.POLAR.0>  (1) 
0

>  <SCORE.INTRA.REPUL>  (1) 
0

>  <SCORE.INTRA.REPUL.0>  (1) 
0

>  <SCORE.INTRA.VDW>  (1) 
1.2898

>  <SCORE.INTRA.VDW.0>  (1) 
-0.496467

>  <SCORE.INTRA.norm>  (1) 
0.104599

>  <SCORE.RESTR>  (1) 
0

>  <SCORE.RESTR.CAVITY>  (1) 
0

>  <SCORE.RESTR.norm>  (1) 
0

>  <SCORE.SYSTEM>  (1) 
0

>  <SCORE.SYSTEM.CONST>  (1) 
0

>  <SCORE.SYSTEM.DIHEDRAL>  (1) 
0

>  <SCORE.SYSTEM.norm>  (1) 
0

>  <SCORE.heavy>  (1) 
12

>  <SCORE.norm>  (1) 
0.167569

>  <TETHERED ATOMS>  (1) 
4,8,9,10,11,1,2,3,12

>  <skeledock_score>  (1) 
51

$$$$
