F760
     RDKit          3D

 17 18  0  0  0  0  0  0  0  0999 V2000
  -16.1392   13.9054   24.2020 O   0  0  0  0  0  0  0  0  0  0  0  0
  -17.0907   13.7067   25.0008 C   0  0  0  0  0  0  0  0  0  0  0  0
  -17.9811   12.4993   24.9658 C   0  0  0  0  0  0  0  0  0  0  0  0
  -18.9305   12.8518   26.0655 C   0  0  0  0  0  0  0  0  0  0  0  0
  -18.5952   14.0666   26.6270 C   0  0  0  0  0  0  0  0  0  0  0  0
  -19.3589   14.6379   27.6431 C   0  0  0  0  0  0  0  0  0  0  0  0
  -20.4913   13.9403   28.0970 C   0  0  0  0  0  0  0  0  0  0  0  0
  -21.5712   14.6826   29.4858 Br  0  0  0  0  0  0  0  0  0  0  0  0
  -20.8337   12.6954   27.5294 C   0  0  0  0  0  0  0  0  0  0  0  0
  -20.0491   12.1422   26.5034 C   0  0  0  0  0  0  0  0  0  0  0  0
  -17.4526   14.6354   26.0165 N   0  0  0  0  0  0  0  0  0  0  0  0
  -18.5102   12.4219   23.9926 H   0  0  0  0  0  0  0  0  0  0  0  0
  -17.4150   11.5752   25.2074 H   0  0  0  0  0  0  0  0  0  0  0  0
  -19.0887   15.5974   28.0649 H   0  0  0  0  0  0  0  0  0  0  0  0
  -21.7075   12.1618   27.8805 H   0  0  0  0  0  0  0  0  0  0  0  0
  -20.3132   11.1928   26.0559 H   0  0  0  0  0  0  0  0  0  0  0  0
  -17.0139   15.5608   26.2197 H   0  0  0  0  0  0  0  0  0  0  0  0
  1  2  2  0
  2  3  1  0
  3  4  1  0
  4  5  2  0
  5  6  1  0
  6  7  2  0
  7  8  1  0
  7  9  1  0
  9 10  2  0
  5 11  1  0
 11  2  1  0
 10  4  1  0
  3 12  1  0
  3 13  1  0
  6 14  1  0
  9 15  1  0
 10 16  1  0
 11 17  1  0
M  END
>  <CHROM.1>  (1) 
2.91998887,0.62440657,0.61933795

>  <Name>  (1) 
F760

>  <RI>  (1) 
2.72961e+07

>  <Rbt.Current_Directory>  (1) 
/data/out

>  <Rbt.Executable>  (1) 
rbdock ($Id: //depot/dev/client3/rdock/2013.1/src/exe/rbdock.cxx#4 $)

>  <Rbt.Library>  (1) 
libRbt.so (2013.1, Build901 2013/11/27)

>  <Rbt.Parameter_File>  (1) 
/python_libraries/phenodiscovery/docking/templates/RDOCK_TETHER.conf

>  <Rbt.Receptor>  (1) 
/data/out/rdock-opt/grid/rdock-grid.prm

>  <SCORE>  (1) 
0.0386174

>  <SCORE.INTER>  (1) 
-0.00715481

>  <SCORE.INTER.CONST>  (1) 
1

>  <SCORE.INTER.POLAR>  (1) 
0

>  <SCORE.INTER.REPUL>  (1) 
0

>  <SCORE.INTER.ROT>  (1) 
0

>  <SCORE.INTER.VDW>  (1) 
-5.40715

>  <SCORE.INTER.norm>  (1) 
-0.000650437

>  <SCORE.INTRA>  (1) 
0

>  <SCORE.INTRA.DIHEDRAL>  (1) 
0

>  <SCORE.INTRA.DIHEDRAL.0>  (1) 
0

>  <SCORE.INTRA.POLAR>  (1) 
0

>  <SCORE.INTRA.POLAR.0>  (1) 
0

>  <SCORE.INTRA.REPUL>  (1) 
0

>  <SCORE.INTRA.REPUL.0>  (1) 
0

>  <SCORE.INTRA.VDW>  (1) 
0

>  <SCORE.INTRA.VDW.0>  (1) 
0

>  <SCORE.INTRA.norm>  (1) 
0

>  <SCORE.RESTR>  (1) 
0.0457722

>  <SCORE.RESTR.CAVITY>  (1) 
0.0457722

>  <SCORE.RESTR.norm>  (1) 
0.00416111

>  <SCORE.SYSTEM>  (1) 
0

>  <SCORE.SYSTEM.CONST>  (1) 
0

>  <SCORE.SYSTEM.DIHEDRAL>  (1) 
0

>  <SCORE.SYSTEM.norm>  (1) 
0

>  <SCORE.heavy>  (1) 
11

>  <SCORE.norm>  (1) 
0.00351067

>  <TETHERED ATOMS>  (1) 
4,10,9,7,5,6,11,1,2

>  <skeledock_score>  (1) 
43

$$$$
