F309
     RDKit          3D

 15 15  0  0  0  0  0  0  0  0999 V2000
  -21.6851   14.5553   27.3409 C   0  0  0  0  0  0  0  0  0  0  0  0
  -20.8410   15.0523   28.4761 C   0  0  0  0  0  0  0  0  0  0  0  0
  -21.2165   16.1509   29.2680 C   0  0  0  0  0  0  0  0  0  0  0  0
  -20.3021   16.4640   30.2646 C   0  0  0  0  0  0  0  0  0  0  0  0
  -19.0250   15.3788   30.1636 S   0  0  0  0  0  0  0  0  0  0  0  0
  -19.6142   14.4963   28.8568 C   0  0  0  0  0  0  0  0  0  0  0  0
  -18.9119   13.3521   28.2487 C   0  0  0  0  0  0  0  0  0  0  0  0
  -19.4195   12.7634   27.2572 O   0  0  0  0  0  0  0  0  0  0  0  0
  -17.6954   12.9089   28.7576 O   0  0  0  0  0  0  0  0  0  0  0  0
  -21.1123   14.6161   26.3921 H   0  0  0  0  0  0  0  0  0  0  0  0
  -21.9869   13.5039   27.5293 H   0  0  0  0  0  0  0  0  0  0  0  0
  -22.6051   15.1683   27.2334 H   0  0  0  0  0  0  0  0  0  0  0  0
  -22.1325   16.7083   29.1207 H   0  0  0  0  0  0  0  0  0  0  0  0
  -20.3977   17.2693   30.9801 H   0  0  0  0  0  0  0  0  0  0  0  0
  -17.2100   12.1252   28.3376 H   0  0  0  0  0  0  0  0  0  0  0  0
  1  2  1  0
  2  3  1  0
  3  4  2  0
  4  5  1  0
  5  6  1  0
  6  7  1  0
  7  8  2  0
  7  9  1  0
  2  6  2  0
  1 10  1  0
  1 11  1  0
  1 12  1  0
  3 13  1  0
  4 14  1  0
  9 15  1  0
M  END
>  <CHROM.1>  (1) 
0.49196739,-179.72000550,1.59519908,-0.49244606,0.78119172

>  <Name>  (1) 
F309

>  <RI>  (1) 
1.35339e+07

>  <Rbt.Current_Directory>  (1) 
/data/out

>  <Rbt.Executable>  (1) 
rbdock ($Id: //depot/dev/client3/rdock/2013.1/src/exe/rbdock.cxx#4 $)

>  <Rbt.Library>  (1) 
libRbt.so (2013.1, Build901 2013/11/27)

>  <Rbt.Parameter_File>  (1) 
/python_libraries/phenodiscovery/docking/templates/RDOCK_TETHER.conf

>  <Rbt.Receptor>  (1) 
/data/out/rdock-opt/grid/rdock-grid.prm

>  <SCORE>  (1) 
1.45687

>  <SCORE.INTER>  (1) 
1.40621

>  <SCORE.INTER.CONST>  (1) 
1

>  <SCORE.INTER.POLAR>  (1) 
0

>  <SCORE.INTER.REPUL>  (1) 
1.59193e-05

>  <SCORE.INTER.ROT>  (1) 
1

>  <SCORE.INTER.VDW>  (1) 
-4.99387

>  <SCORE.INTER.norm>  (1) 
0.156246

>  <SCORE.INTRA>  (1) 
0.0506526

>  <SCORE.INTRA.DIHEDRAL>  (1) 
-0.0285323

>  <SCORE.INTRA.DIHEDRAL.0>  (1) 
0.0330123

>  <SCORE.INTRA.POLAR>  (1) 
0

>  <SCORE.INTRA.POLAR.0>  (1) 
0

>  <SCORE.INTRA.REPUL>  (1) 
0

>  <SCORE.INTRA.REPUL.0>  (1) 
0

>  <SCORE.INTRA.VDW>  (1) 
0.0649187

>  <SCORE.INTRA.VDW.0>  (1) 
-0.678348

>  <SCORE.INTRA.norm>  (1) 
0.00562806

>  <SCORE.RESTR>  (1) 
0

>  <SCORE.RESTR.CAVITY>  (1) 
0

>  <SCORE.RESTR.norm>  (1) 
0

>  <SCORE.SYSTEM>  (1) 
0

>  <SCORE.SYSTEM.CONST>  (1) 
0

>  <SCORE.SYSTEM.DIHEDRAL>  (1) 
0

>  <SCORE.SYSTEM.norm>  (1) 
0

>  <SCORE.heavy>  (1) 
9

>  <SCORE.norm>  (1) 
0.161874

>  <TETHERED ATOMS>  (1) 
3,2,6,7,1,5,4,8

>  <skeledock_score>  (1) 
41

$$$$
