F687
     RDKit          3D

 24 25  0  0  0  0  0  0  0  0999 V2000
  -17.4329   15.9039   26.8251 F   0  0  0  0  0  0  0  0  0  0  0  0
  -18.2048   15.0406   26.1177 C   0  0  0  0  0  0  0  0  0  0  0  0
  -17.6650   14.4066   24.9943 C   0  0  0  0  0  0  0  0  0  0  0  0
  -18.4412   13.5158   24.2506 C   0  0  0  0  0  0  0  0  0  0  0  0
  -19.7617   13.2602   24.6256 C   0  0  0  0  0  0  0  0  0  0  0  0
  -20.3114   13.8992   25.7415 C   0  0  0  0  0  0  0  0  0  0  0  0
  -19.5365   14.7986   26.4994 C   0  0  0  0  0  0  0  0  0  0  0  0
  -20.0727   15.4597   27.6612 N   0  0  0  0  0  0  0  0  0  0  0  0
  -21.5022   15.5793   27.9411 C   0  0  0  0  0  0  0  0  0  0  0  0
  -21.9911   14.3505   28.6376 C   0  0  0  0  0  0  0  0  0  0  0  0
  -23.0080   13.5229   28.2033 C   0  0  0  0  0  0  0  0  0  0  0  0
  -23.1197   12.5762   29.1973 C   0  0  0  0  0  0  0  0  0  0  0  0
  -22.2117   12.8423   30.1530 N   0  0  0  0  0  0  0  0  0  0  0  0
  -21.5212   13.9216   29.8249 N   0  0  0  0  0  0  0  0  0  0  0  0
  -16.6415   14.6027   24.7016 H   0  0  0  0  0  0  0  0  0  0  0  0
  -18.0193   13.0230   23.3843 H   0  0  0  0  0  0  0  0  0  0  0  0
  -20.3617   12.5674   24.0498 H   0  0  0  0  0  0  0  0  0  0  0  0
  -21.3337   13.6774   26.0130 H   0  0  0  0  0  0  0  0  0  0  0  0
  -19.4185   15.9785   28.2901 H   0  0  0  0  0  0  0  0  0  0  0  0
  -21.6997   16.4886   28.5464 H   0  0  0  0  0  0  0  0  0  0  0  0
  -22.0602   15.6902   26.9867 H   0  0  0  0  0  0  0  0  0  0  0  0
  -23.5961   13.6068   27.2989 H   0  0  0  0  0  0  0  0  0  0  0  0
  -23.8179   11.7500   29.2239 H   0  0  0  0  0  0  0  0  0  0  0  0
  -22.0643   12.2948   31.0294 H   0  0  0  0  0  0  0  0  0  0  0  0
  1  2  1  0
  2  3  2  0
  3  4  1  0
  4  5  2  0
  5  6  1  0
  6  7  2  0
  7  8  1  0
  8  9  1  0
  9 10  1  0
 10 11  1  0
 11 12  2  0
 12 13  1  0
 13 14  1  0
  2  7  1  0
 10 14  2  0
  3 15  1  0
  4 16  1  0
  5 17  1  0
  6 18  1  0
  8 19  1  0
  9 20  1  0
  9 21  1  0
 11 22  1  0
 12 23  1  0
 13 24  1  0
M  END
>  <CHROM.1>  (1) 
162.59791281,84.86645143,-122.62816251,-0.46030700,0.79572921,0.75158881

>  <Name>  (1) 
F687

>  <RI>  (1) 
2.56325e+07

>  <Rbt.Current_Directory>  (1) 
/data/out

>  <Rbt.Executable>  (1) 
rbdock ($Id: //depot/dev/client3/rdock/2013.1/src/exe/rbdock.cxx#4 $)

>  <Rbt.Library>  (1) 
libRbt.so (2013.1, Build901 2013/11/27)

>  <Rbt.Parameter_File>  (1) 
/python_libraries/phenodiscovery/docking/templates/RDOCK_TETHER.conf

>  <Rbt.Receptor>  (1) 
/data/out/rdock-opt/grid/rdock-grid.prm

>  <SCORE>  (1) 
-4.36854

>  <SCORE.INTER>  (1) 
-3.84396

>  <SCORE.INTER.CONST>  (1) 
1

>  <SCORE.INTER.POLAR>  (1) 
-0.485142

>  <SCORE.INTER.REPUL>  (1) 
0

>  <SCORE.INTER.ROT>  (1) 
3

>  <SCORE.INTER.VDW>  (1) 
-10.5945

>  <SCORE.INTER.norm>  (1) 
-0.274568

>  <SCORE.INTRA>  (1) 
-0.524586

>  <SCORE.INTRA.DIHEDRAL>  (1) 
-2.14731

>  <SCORE.INTRA.DIHEDRAL.0>  (1) 
5.21234

>  <SCORE.INTRA.POLAR>  (1) 
0

>  <SCORE.INTRA.POLAR.0>  (1) 
0

>  <SCORE.INTRA.REPUL>  (1) 
0

>  <SCORE.INTRA.REPUL.0>  (1) 
0

>  <SCORE.INTRA.VDW>  (1) 
0.549071

>  <SCORE.INTRA.VDW.0>  (1) 
-1.32291

>  <SCORE.INTRA.norm>  (1) 
-0.0374704

>  <SCORE.RESTR>  (1) 
0

>  <SCORE.RESTR.CAVITY>  (1) 
0

>  <SCORE.RESTR.norm>  (1) 
0

>  <SCORE.SYSTEM>  (1) 
0

>  <SCORE.SYSTEM.CONST>  (1) 
0

>  <SCORE.SYSTEM.DIHEDRAL>  (1) 
0

>  <SCORE.SYSTEM.norm>  (1) 
0

>  <SCORE.heavy>  (1) 
14

>  <SCORE.norm>  (1) 
-0.312039

>  <TETHERED ATOMS>  (1) 
2,7,6,5,4,8,9,3,10,14,13,12

>  <skeledock_score>  (1) 
63

$$$$
