F740
     RDKit          3D

 26 28  0  0  0  0  0  0  0  0999 V2000
  -18.6565   12.5258   28.1239 O   0  0  0  0  0  0  0  0  0  0  0  0
  -19.1217   13.6621   27.8336 C   0  0  0  0  0  0  0  0  0  0  0  0
  -19.1002   14.1118   26.4720 N   0  0  0  0  0  0  0  0  0  0  0  0
  -18.4267   13.3314   25.4385 C   0  0  0  0  0  0  0  0  0  0  0  0
  -19.3191   13.0128   24.2528 C   0  0  0  0  0  0  0  0  0  0  0  0
  -18.2353   14.0737   24.1288 C   0  0  0  0  0  0  0  0  0  0  0  0
  -19.6294   14.5347   28.9128 C   0  0  0  0  0  0  0  0  0  0  0  0
  -19.3023   14.2437   30.2634 C   0  0  0  0  0  0  0  0  0  0  0  0
  -19.7450   15.0788   31.3043 C   0  0  0  0  0  0  0  0  0  0  0  0
  -20.5213   16.1814   30.9664 C   0  0  0  0  0  0  0  0  0  0  0  0
  -21.0731   17.1340   31.8013 O   0  0  0  0  0  0  0  0  0  0  0  0
  -21.7958   18.0694   30.9887 C   0  0  0  0  0  0  0  0  0  0  0  0
  -21.6286   17.6021   29.6428 O   0  0  0  0  0  0  0  0  0  0  0  0
  -20.8513   16.4606   29.6809 C   0  0  0  0  0  0  0  0  0  0  0  0
  -20.4271   15.6655   28.6194 C   0  0  0  0  0  0  0  0  0  0  0  0
  -19.3842   15.0918   26.2478 H   0  0  0  0  0  0  0  0  0  0  0  0
  -17.6710   12.5721   25.7323 H   0  0  0  0  0  0  0  0  0  0  0  0
  -20.3511   13.4219   24.3061 H   0  0  0  0  0  0  0  0  0  0  0  0
  -19.0779   12.0567   23.7423 H   0  0  0  0  0  0  0  0  0  0  0  0
  -17.3511   13.7480   23.5416 H   0  0  0  0  0  0  0  0  0  0  0  0
  -18.6260   15.1135   24.0974 H   0  0  0  0  0  0  0  0  0  0  0  0
  -18.6908   13.3838   30.5073 H   0  0  0  0  0  0  0  0  0  0  0  0
  -19.4925   14.8695   32.3354 H   0  0  0  0  0  0  0  0  0  0  0  0
  -21.3639   19.0863   31.0976 H   0  0  0  0  0  0  0  0  0  0  0  0
  -22.8712   18.0666   31.2642 H   0  0  0  0  0  0  0  0  0  0  0  0
  -20.7188   15.9125   27.6070 H   0  0  0  0  0  0  0  0  0  0  0  0
  1  2  2  0
  2  3  1  0
  3  4  1  0
  4  5  1  0
  5  6  1  0
  2  7  1  0
  7  8  2  0
  8  9  1  0
  9 10  2  0
 10 11  1  0
 11 12  1  0
 12 13  1  0
 13 14  1  0
 14 15  2  0
  6  4  1  0
  7 15  1  0
 10 14  1  0
  3 16  1  0
  4 17  1  0
  5 18  1  0
  5 19  1  0
  6 20  1  0
  6 21  1  0
  8 22  1  0
  9 23  1  0
 12 24  1  0
 12 25  1  0
 15 26  1  0
M  END
>  <CHROM.1>  (1) 
126.11831506,15.20003292,-1.02102909,-0.99023196,1.71545166

>  <Name>  (1) 
F740

>  <RI>  (1) 
4.1058e+07

>  <Rbt.Current_Directory>  (1) 
/data/out

>  <Rbt.Executable>  (1) 
rbdock ($Id: //depot/dev/client3/rdock/2013.1/src/exe/rbdock.cxx#4 $)

>  <Rbt.Library>  (1) 
libRbt.so (2013.1, Build901 2013/11/27)

>  <Rbt.Parameter_File>  (1) 
/python_libraries/phenodiscovery/docking/templates/RDOCK_TETHER.conf

>  <Rbt.Receptor>  (1) 
/data/out/rdock-opt/grid/rdock-grid.prm

>  <SCORE>  (1) 
0.524574

>  <SCORE.INTER>  (1) 
0.345415

>  <SCORE.INTER.CONST>  (1) 
1

>  <SCORE.INTER.POLAR>  (1) 
0

>  <SCORE.INTER.REPUL>  (1) 
0

>  <SCORE.INTER.ROT>  (1) 
2

>  <SCORE.INTER.VDW>  (1) 
-7.05459

>  <SCORE.INTER.norm>  (1) 
0.0230277

>  <SCORE.INTRA>  (1) 
0.17916

>  <SCORE.INTRA.DIHEDRAL>  (1) 
-2.45219

>  <SCORE.INTRA.DIHEDRAL.0>  (1) 
4.8272

>  <SCORE.INTRA.POLAR>  (1) 
0

>  <SCORE.INTRA.POLAR.0>  (1) 
0

>  <SCORE.INTRA.REPUL>  (1) 
0

>  <SCORE.INTRA.REPUL.0>  (1) 
0

>  <SCORE.INTRA.VDW>  (1) 
1.40525

>  <SCORE.INTRA.VDW.0>  (1) 
-1.50809

>  <SCORE.INTRA.norm>  (1) 
0.011944

>  <SCORE.RESTR>  (1) 
0

>  <SCORE.RESTR.CAVITY>  (1) 
0

>  <SCORE.RESTR.norm>  (1) 
0

>  <SCORE.SYSTEM>  (1) 
0

>  <SCORE.SYSTEM.CONST>  (1) 
0

>  <SCORE.SYSTEM.DIHEDRAL>  (1) 
0

>  <SCORE.SYSTEM.norm>  (1) 
0

>  <SCORE.heavy>  (1) 
15

>  <SCORE.norm>  (1) 
0.0349716

>  <TETHERED ATOMS>  (1) 
2,3,10,7,4,6,9,14,15,8

>  <skeledock_score>  (1) 
42

$$$$
