F666
     RDKit          3D

 35 37  0  0  0  0  0  0  0  0999 V2000
  -21.7940   19.2641   30.2379 F   0  0  0  0  0  0  0  0  0  0  0  0
  -21.3232   18.0230   29.9766 C   0  0  0  0  0  0  0  0  0  0  0  0
  -21.8449   17.2836   28.9116 C   0  0  0  0  0  0  0  0  0  0  0  0
  -21.3655   15.9971   28.6525 C   0  0  0  0  0  0  0  0  0  0  0  0
  -20.3536   15.4450   29.4570 C   0  0  0  0  0  0  0  0  0  0  0  0
  -19.8387   16.2004   30.5273 C   0  0  0  0  0  0  0  0  0  0  0  0
  -20.3205   17.4839   30.7813 C   0  0  0  0  0  0  0  0  0  0  0  0
  -19.9002   14.0984   29.2318 N   0  0  0  0  0  0  0  0  0  0  0  0
  -18.4545   13.8357   29.2041 C   0  0  0  0  0  0  0  0  0  0  0  0
  -18.1361   12.5606   28.4154 C   0  0  0  0  0  0  0  0  0  0  0  0
  -18.9673   12.4999   27.2010 N   0  0  0  0  0  0  0  0  0  0  0  0
  -20.4267   12.6680   27.3216 C   0  0  0  0  0  0  0  0  0  0  0  0
  -20.8224   13.0616   28.7482 C   0  0  0  0  0  0  0  0  0  0  0  0
  -18.3605   12.2846   25.9090 C   0  0  0  0  0  0  0  0  0  0  0  0
  -17.1455   11.9586   25.8305 O   0  0  0  0  0  0  0  0  0  0  0  0
  -19.1372   12.4966   24.6382 C   0  0  0  0  0  0  0  0  0  0  0  0
  -20.1836   11.4280   24.3575 C   0  0  0  0  0  0  0  0  0  0  0  0
  -18.9063   11.4672   23.5387 C   0  0  0  0  0  0  0  0  0  0  0  0
  -22.6244   17.7048   28.2897 H   0  0  0  0  0  0  0  0  0  0  0  0
  -21.7800   15.4336   27.8267 H   0  0  0  0  0  0  0  0  0  0  0  0
  -19.0855   15.7897   31.1859 H   0  0  0  0  0  0  0  0  0  0  0  0
  -19.9240   18.0556   31.6105 H   0  0  0  0  0  0  0  0  0  0  0  0
  -17.9343   14.6858   28.7095 H   0  0  0  0  0  0  0  0  0  0  0  0
  -18.0687   13.7412   30.2414 H   0  0  0  0  0  0  0  0  0  0  0  0
  -18.3528   11.6719   29.0469 H   0  0  0  0  0  0  0  0  0  0  0  0
  -17.0503   12.5443   28.1811 H   0  0  0  0  0  0  0  0  0  0  0  0
  -20.7641   13.4709   26.6320 H   0  0  0  0  0  0  0  0  0  0  0  0
  -20.9391   11.7222   27.0455 H   0  0  0  0  0  0  0  0  0  0  0  0
  -20.7482   12.1724   29.4111 H   0  0  0  0  0  0  0  0  0  0  0  0
  -21.8805   13.3996   28.7811 H   0  0  0  0  0  0  0  0  0  0  0  0
  -19.3917   13.5237   24.3012 H   0  0  0  0  0  0  0  0  0  0  0  0
  -20.2267   10.5815   25.0767 H   0  0  0  0  0  0  0  0  0  0  0  0
  -21.0798   11.7938   23.8133 H   0  0  0  0  0  0  0  0  0  0  0  0
  -19.0503   11.8517   22.5071 H   0  0  0  0  0  0  0  0  0  0  0  0
  -18.2095   10.6330   23.7694 H   0  0  0  0  0  0  0  0  0  0  0  0
  1  2  1  0
  2  3  2  0
  3  4  1  0
  4  5  2  0
  5  6  1  0
  6  7  2  0
  5  8  1  0
  8  9  1  0
  9 10  1  0
 10 11  1  0
 11 12  1  0
 12 13  1  0
 11 14  1  0
 14 15  2  0
 14 16  1  0
 16 17  1  0
 17 18  1  0
  2  7  1  0
 13  8  1  0
 18 16  1  0
  3 19  1  0
  4 20  1  0
  6 21  1  0
  7 22  1  0
  9 23  1  0
  9 24  1  0
 10 25  1  0
 10 26  1  0
 12 27  1  0
 12 28  1  0
 13 29  1  0
 13 30  1  0
 16 31  1  0
 17 32  1  0
 17 33  1  0
 18 34  1  0
 18 35  1  0
M  END
>  <CHROM.1>  (1) 
133.90931019,-72.63846312,-0.72360887,-0.92897126,1.28320684

>  <Name>  (1) 
F666

>  <RI>  (1) 
9.98981e+06

>  <Rbt.Current_Directory>  (1) 
/data/out

>  <Rbt.Executable>  (1) 
rbdock ($Id: //depot/dev/client3/rdock/2013.1/src/exe/rbdock.cxx#4 $)

>  <Rbt.Library>  (1) 
libRbt.so (2013.1, Build901 2013/11/27)

>  <Rbt.Parameter_File>  (1) 
/python_libraries/phenodiscovery/docking/templates/RDOCK_TETHER.conf

>  <Rbt.Receptor>  (1) 
/data/out/rdock-opt/grid/rdock-grid.prm

>  <SCORE>  (1) 
14.6568

>  <SCORE.INTER>  (1) 
14.0788

>  <SCORE.INTER.CONST>  (1) 
1

>  <SCORE.INTER.POLAR>  (1) 
0

>  <SCORE.INTER.REPUL>  (1) 
0

>  <SCORE.INTER.ROT>  (1) 
2

>  <SCORE.INTER.VDW>  (1) 
6.67882

>  <SCORE.INTER.norm>  (1) 
0.782157

>  <SCORE.INTRA>  (1) 
0.577974

>  <SCORE.INTRA.DIHEDRAL>  (1) 
-0.529111

>  <SCORE.INTRA.DIHEDRAL.0>  (1) 
8.06018

>  <SCORE.INTRA.POLAR>  (1) 
0

>  <SCORE.INTRA.POLAR.0>  (1) 
0

>  <SCORE.INTRA.REPUL>  (1) 
0

>  <SCORE.INTRA.REPUL.0>  (1) 
0

>  <SCORE.INTRA.VDW>  (1) 
0.842529

>  <SCORE.INTRA.VDW.0>  (1) 
-1.62965

>  <SCORE.INTRA.norm>  (1) 
0.0321096

>  <SCORE.RESTR>  (1) 
0

>  <SCORE.RESTR.CAVITY>  (1) 
0

>  <SCORE.RESTR.norm>  (1) 
0

>  <SCORE.SYSTEM>  (1) 
0

>  <SCORE.SYSTEM.CONST>  (1) 
0

>  <SCORE.SYSTEM.DIHEDRAL>  (1) 
0

>  <SCORE.SYSTEM.norm>  (1) 
0

>  <SCORE.heavy>  (1) 
18

>  <SCORE.norm>  (1) 
0.814266

>  <TETHERED ATOMS>  (1) 
9,10,11,14,15,16,1,2,3,4,5,8

>  <skeledock_score>  (1) 
53

$$$$
