F600
     RDKit          3D

 16 16  0  0  0  0  0  0  0  0999 V2000
  -19.1124   14.8071   25.8705 C   0  0  0  0  0  0  0  0  0  0  0  0
  -20.4715   14.4929   26.0823 O   0  0  0  0  0  0  0  0  0  0  0  0
  -20.6086   13.6506   27.2102 C   0  0  0  0  0  0  0  0  0  0  0  0
  -20.3487   14.4168   28.4685 C   0  0  0  0  0  0  0  0  0  0  0  0
  -20.6575   15.7246   28.6225 N   0  0  0  0  0  0  0  0  0  0  0  0
  -20.3570   16.1979   29.8304 N   0  0  0  0  0  0  0  0  0  0  0  0
  -19.8114   15.2643   30.6381 C   0  0  0  0  0  0  0  0  0  0  0  0
  -19.4062   15.5282   31.9780 N   0  0  0  0  0  0  0  0  0  0  0  0
  -19.6706   13.7718   29.8724 S   0  0  0  0  0  0  0  0  0  0  0  0
  -18.5387   13.9019   25.5726 H   0  0  0  0  0  0  0  0  0  0  0  0
  -18.6575   15.2766   26.7714 H   0  0  0  0  0  0  0  0  0  0  0  0
  -19.0433   15.5384   25.0392 H   0  0  0  0  0  0  0  0  0  0  0  0
  -19.9630   12.7420   27.1619 H   0  0  0  0  0  0  0  0  0  0  0  0
  -21.6566   13.2868   27.2434 H   0  0  0  0  0  0  0  0  0  0  0  0
  -18.9882   14.7701   32.5613 H   0  0  0  0  0  0  0  0  0  0  0  0
  -19.5245   16.4820   32.3857 H   0  0  0  0  0  0  0  0  0  0  0  0
  1  2  1  0
  2  3  1  0
  3  4  1  0
  4  5  2  0
  5  6  1  0
  6  7  2  0
  7  8  1  0
  7  9  1  0
  9  4  1  0
  1 10  1  0
  1 11  1  0
  1 12  1  0
  3 13  1  0
  3 14  1  0
  8 15  1  0
  8 16  1  0
M  END
>  <CHROM.1>  (1) 
71.71980891,33.06763764,1.67810562,0.74102352,1.33141753

>  <Name>  (1) 
F600

>  <RI>  (1) 
3.8073e+07

>  <Rbt.Current_Directory>  (1) 
/data/out

>  <Rbt.Executable>  (1) 
rbdock ($Id: //depot/dev/client3/rdock/2013.1/src/exe/rbdock.cxx#4 $)

>  <Rbt.Library>  (1) 
libRbt.so (2013.1, Build901 2013/11/27)

>  <Rbt.Parameter_File>  (1) 
/python_libraries/phenodiscovery/docking/templates/RDOCK_TETHER.conf

>  <Rbt.Receptor>  (1) 
/data/out/rdock-opt/grid/rdock-grid.prm

>  <SCORE>  (1) 
1.18753

>  <SCORE.INTER>  (1) 
2.75492

>  <SCORE.INTER.CONST>  (1) 
1

>  <SCORE.INTER.POLAR>  (1) 
0

>  <SCORE.INTER.REPUL>  (1) 
0

>  <SCORE.INTER.ROT>  (1) 
2

>  <SCORE.INTER.VDW>  (1) 
-4.64508

>  <SCORE.INTER.norm>  (1) 
0.306102

>  <SCORE.INTRA>  (1) 
-1.5674

>  <SCORE.INTRA.DIHEDRAL>  (1) 
-2.77429

>  <SCORE.INTRA.DIHEDRAL.0>  (1) 
4.52879

>  <SCORE.INTRA.POLAR>  (1) 
0

>  <SCORE.INTRA.POLAR.0>  (1) 
0

>  <SCORE.INTRA.REPUL>  (1) 
0

>  <SCORE.INTRA.REPUL.0>  (1) 
0

>  <SCORE.INTRA.VDW>  (1) 
-0.180253

>  <SCORE.INTRA.VDW.0>  (1) 
0.179009

>  <SCORE.INTRA.norm>  (1) 
-0.174155

>  <SCORE.RESTR>  (1) 
0

>  <SCORE.RESTR.CAVITY>  (1) 
0

>  <SCORE.RESTR.norm>  (1) 
0

>  <SCORE.SYSTEM>  (1) 
0

>  <SCORE.SYSTEM.CONST>  (1) 
0

>  <SCORE.SYSTEM.DIHEDRAL>  (1) 
0

>  <SCORE.SYSTEM.norm>  (1) 
0

>  <SCORE.heavy>  (1) 
9

>  <SCORE.norm>  (1) 
0.131947

>  <TETHERED ATOMS>  (1) 
4,3,1,7

>  <skeledock_score>  (1) 
20

$$$$
