F579
     RDKit          3D

 29 31  0  0  0  0  0  0  0  0999 V2000
  -20.6486   16.1895   34.4273 C   0  0  0  0  0  0  0  0  0  0  0  0
  -19.7462   16.4424   33.3553 O   0  0  0  0  0  0  0  0  0  0  0  0
  -19.7436   15.7393   32.1418 C   0  0  0  0  0  0  0  0  0  0  0  0
  -19.4354   14.3638   32.1670 C   0  0  0  0  0  0  0  0  0  0  0  0
  -19.4131   13.6045   30.9849 C   0  0  0  0  0  0  0  0  0  0  0  0
  -19.7019   14.2381   29.7780 C   0  0  0  0  0  0  0  0  0  0  0  0
  -19.6731   13.6308   28.5655 N   0  0  0  0  0  0  0  0  0  0  0  0
  -19.9733   14.5145   27.5811 C   0  0  0  0  0  0  0  0  0  0  0  0
  -19.8896   14.2018   26.1887 N   0  0  0  0  0  0  0  0  0  0  0  0
  -19.5101   12.9053   25.7166 C   0  0  0  0  0  0  0  0  0  0  0  0
  -19.8377   11.8712   26.3582 O   0  0  0  0  0  0  0  0  0  0  0  0
  -18.7565   12.7739   24.4305 C   0  0  0  0  0  0  0  0  0  0  0  0
  -17.3970   12.1008   24.5488 C   0  0  0  0  0  0  0  0  0  0  0  0
  -17.4837   13.6069   24.3751 C   0  0  0  0  0  0  0  0  0  0  0  0
  -20.2643   16.0729   28.1698 S   0  0  0  0  0  0  0  0  0  0  0  0
  -20.0088   15.5873   29.7542 C   0  0  0  0  0  0  0  0  0  0  0  0
  -20.0370   16.3619   30.9088 C   0  0  0  0  0  0  0  0  0  0  0  0
  -21.6946   16.3548   34.0928 H   0  0  0  0  0  0  0  0  0  0  0  0
  -20.4272   16.8876   35.2603 H   0  0  0  0  0  0  0  0  0  0  0  0
  -20.5247   15.1482   34.7929 H   0  0  0  0  0  0  0  0  0  0  0  0
  -19.2090   13.8824   33.1099 H   0  0  0  0  0  0  0  0  0  0  0  0
  -19.1661   12.5508   31.0125 H   0  0  0  0  0  0  0  0  0  0  0  0
  -19.9601   14.9845   25.5004 H   0  0  0  0  0  0  0  0  0  0  0  0
  -19.2943   12.6450   23.4676 H   0  0  0  0  0  0  0  0  0  0  0  0
  -17.0696   11.5612   23.6353 H   0  0  0  0  0  0  0  0  0  0  0  0
  -17.0909   11.7848   25.5698 H   0  0  0  0  0  0  0  0  0  0  0  0
  -17.2247   14.1777   25.2935 H   0  0  0  0  0  0  0  0  0  0  0  0
  -17.2055   13.9575   23.3589 H   0  0  0  0  0  0  0  0  0  0  0  0
  -20.2718   17.4155   30.8422 H   0  0  0  0  0  0  0  0  0  0  0  0
  1  2  1  0
  2  3  1  0
  3  4  2  0
  4  5  1  0
  5  6  2  0
  6  7  1  0
  7  8  2  0
  8  9  1  0
  9 10  1  0
 10 11  2  0
 10 12  1  0
 12 13  1  0
 13 14  1  0
  8 15  1  0
 15 16  1  0
 16 17  2  0
  3 17  1  0
  6 16  1  0
 14 12  1  0
  1 18  1  0
  1 19  1  0
  1 20  1  0
  4 21  1  0
  5 22  1  0
  9 23  1  0
 12 24  1  0
 13 25  1  0
 13 26  1  0
 14 27  1  0
 14 28  1  0
 17 29  1  0
M  END
>  <CHROM.1>  (1) 
-64.30605967,1.63348916,120.76335609,0.78090119,1.36834444,-1.21808504

>  <Name>  (1) 
F579

>  <RI>  (1) 
1.64164e+07

>  <Rbt.Current_Directory>  (1) 
/data/out

>  <Rbt.Executable>  (1) 
rbdock ($Id: //depot/dev/client3/rdock/2013.1/src/exe/rbdock.cxx#4 $)

>  <Rbt.Library>  (1) 
libRbt.so (2013.1, Build901 2013/11/27)

>  <Rbt.Parameter_File>  (1) 
/python_libraries/phenodiscovery/docking/templates/RDOCK_TETHER.conf

>  <Rbt.Receptor>  (1) 
/data/out/rdock-opt/grid/rdock-grid.prm

>  <SCORE>  (1) 
2.86779

>  <SCORE.INTER>  (1) 
1.74248

>  <SCORE.INTER.CONST>  (1) 
1

>  <SCORE.INTER.POLAR>  (1) 
0

>  <SCORE.INTER.REPUL>  (1) 
0

>  <SCORE.INTER.ROT>  (1) 
3

>  <SCORE.INTER.VDW>  (1) 
-6.65752

>  <SCORE.INTER.norm>  (1) 
0.102499

>  <SCORE.INTRA>  (1) 
1.12531

>  <SCORE.INTRA.DIHEDRAL>  (1) 
3.51075

>  <SCORE.INTRA.DIHEDRAL.0>  (1) 
3.35102

>  <SCORE.INTRA.POLAR>  (1) 
0

>  <SCORE.INTRA.POLAR.0>  (1) 
0

>  <SCORE.INTRA.REPUL>  (1) 
0

>  <SCORE.INTRA.REPUL.0>  (1) 
0

>  <SCORE.INTRA.VDW>  (1) 
-0.630068

>  <SCORE.INTRA.VDW.0>  (1) 
-1.58516

>  <SCORE.INTRA.norm>  (1) 
0.0661946

>  <SCORE.RESTR>  (1) 
0

>  <SCORE.RESTR.CAVITY>  (1) 
0

>  <SCORE.RESTR.norm>  (1) 
0

>  <SCORE.SYSTEM>  (1) 
0

>  <SCORE.SYSTEM.CONST>  (1) 
0

>  <SCORE.SYSTEM.DIHEDRAL>  (1) 
0

>  <SCORE.SYSTEM.norm>  (1) 
0

>  <SCORE.heavy>  (1) 
17

>  <SCORE.norm>  (1) 
0.168693

>  <TETHERED ATOMS>  (1) 
8,9,10,11,12,3,17,16,15,4,14

>  <skeledock_score>  (1) 
47

$$$$
