F362
     RDKit          3D

 30 31  0  0  0  0  0  0  0  0999 V2000
  -17.6664   16.5714   27.1891 C   0  0  0  0  0  0  0  0  0  0  0  0
  -18.4611   15.7755   26.1533 C   0  0  0  0  0  0  0  0  0  0  0  0
  -19.0580   14.5724   26.7477 N   0  0  0  0  0  0  0  0  0  0  0  0
  -19.5728   13.5061   25.8801 C   0  0  0  0  0  0  0  0  0  0  0  0
  -21.0227   13.1959   26.2345 C   0  0  0  0  0  0  0  0  0  0  0  0
  -19.0935   14.3994   28.1793 C   0  0  0  0  0  0  0  0  0  0  0  0
  -18.2153   13.5109   28.8301 C   0  0  0  0  0  0  0  0  0  0  0  0
  -18.3624   13.2940   30.2175 C   0  0  0  0  0  0  0  0  0  0  0  0
  -17.4542   12.3422   30.9282 C   0  0  0  0  0  0  0  0  0  0  0  0
  -19.3486   13.9353   30.9117 N   0  0  0  0  0  0  0  0  0  0  0  0
  -20.1652   14.7897   30.2516 C   0  0  0  0  0  0  0  0  0  0  0  0
  -21.1915   15.4661   30.7927 N   0  0  0  0  0  0  0  0  0  0  0  0
  -21.6737   16.1181   29.7014 C   0  0  0  0  0  0  0  0  0  0  0  0
  -20.9839   15.8451   28.5669 N   0  0  0  0  0  0  0  0  0  0  0  0
  -20.0349   15.0126   28.9438 N   0  0  0  0  0  0  0  0  0  0  0  0
  -17.1375   17.4080   26.6860 H   0  0  0  0  0  0  0  0  0  0  0  0
  -16.9146   15.9221   27.6835 H   0  0  0  0  0  0  0  0  0  0  0  0
  -18.3382   16.9999   27.9609 H   0  0  0  0  0  0  0  0  0  0  0  0
  -17.7854   15.5008   25.3141 H   0  0  0  0  0  0  0  0  0  0  0  0
  -19.2653   16.4173   25.7335 H   0  0  0  0  0  0  0  0  0  0  0  0
  -19.5188   13.8045   24.8112 H   0  0  0  0  0  0  0  0  0  0  0  0
  -18.9577   12.5887   25.9835 H   0  0  0  0  0  0  0  0  0  0  0  0
  -21.0943   12.8016   27.2702 H   0  0  0  0  0  0  0  0  0  0  0  0
  -21.4205   12.4295   25.5366 H   0  0  0  0  0  0  0  0  0  0  0  0
  -21.6421   14.1137   26.1487 H   0  0  0  0  0  0  0  0  0  0  0  0
  -17.4359   12.9979   28.2823 H   0  0  0  0  0  0  0  0  0  0  0  0
  -17.6500   12.3583   32.0214 H   0  0  0  0  0  0  0  0  0  0  0  0
  -16.3959   12.6287   30.7526 H   0  0  0  0  0  0  0  0  0  0  0  0
  -17.6227   11.3124   30.5491 H   0  0  0  0  0  0  0  0  0  0  0  0
  -22.5275   16.7814   29.7334 H   0  0  0  0  0  0  0  0  0  0  0  0
  1  2  1  0
  2  3  1  0
  3  4  1  0
  4  5  1  0
  3  6  1  0
  6  7  2  0
  7  8  1  0
  8  9  1  0
  8 10  2  0
 10 11  1  0
 11 12  2  0
 12 13  1  0
 13 14  2  0
 14 15  1  0
 15  6  1  0
 15 11  1  0
  1 16  1  0
  1 17  1  0
  1 18  1  0
  2 19  1  0
  2 20  1  0
  4 21  1  0
  4 22  1  0
  5 23  1  0
  5 24  1  0
  5 25  1  0
  7 26  1  0
  9 27  1  0
  9 28  1  0
  9 29  1  0
 13 30  1  0
M  END
>  <CHROM.1>  (1) 
-164.86361815,-125.77356607,-104.62944792,-1.24013529,-0.46737626,1.67152871

>  <Name>  (1) 
F362

>  <RI>  (1) 
1.32021e+07

>  <Rbt.Current_Directory>  (1) 
/data/out

>  <Rbt.Executable>  (1) 
rbdock ($Id: //depot/dev/client3/rdock/2013.1/src/exe/rbdock.cxx#4 $)

>  <Rbt.Library>  (1) 
libRbt.so (2013.1, Build901 2013/11/27)

>  <Rbt.Parameter_File>  (1) 
/python_libraries/phenodiscovery/docking/templates/RDOCK_TETHER.conf

>  <Rbt.Receptor>  (1) 
/data/out/rdock-opt/grid/rdock-grid.prm

>  <SCORE>  (1) 
0.976128

>  <SCORE.INTER>  (1) 
-0.0544761

>  <SCORE.INTER.CONST>  (1) 
1

>  <SCORE.INTER.POLAR>  (1) 
0

>  <SCORE.INTER.REPUL>  (1) 
0

>  <SCORE.INTER.ROT>  (1) 
3

>  <SCORE.INTER.VDW>  (1) 
-8.45448

>  <SCORE.INTER.norm>  (1) 
-0.00363174

>  <SCORE.INTRA>  (1) 
1.0306

>  <SCORE.INTRA.DIHEDRAL>  (1) 
4.19992

>  <SCORE.INTRA.DIHEDRAL.0>  (1) 
12.5982

>  <SCORE.INTRA.POLAR>  (1) 
0

>  <SCORE.INTRA.POLAR.0>  (1) 
0

>  <SCORE.INTRA.REPUL>  (1) 
0

>  <SCORE.INTRA.REPUL.0>  (1) 
0

>  <SCORE.INTRA.VDW>  (1) 
-1.06935

>  <SCORE.INTRA.VDW.0>  (1) 
-1.63315

>  <SCORE.INTRA.norm>  (1) 
0.0687069

>  <SCORE.RESTR>  (1) 
0

>  <SCORE.RESTR.CAVITY>  (1) 
0

>  <SCORE.RESTR.norm>  (1) 
0

>  <SCORE.SYSTEM>  (1) 
0

>  <SCORE.SYSTEM.CONST>  (1) 
0

>  <SCORE.SYSTEM.DIHEDRAL>  (1) 
0

>  <SCORE.SYSTEM.norm>  (1) 
0

>  <SCORE.heavy>  (1) 
15

>  <SCORE.norm>  (1) 
0.0650752

>  <TETHERED ATOMS>  (1) 
1,2,3,4,5,8,10,11,12,13,14

>  <skeledock_score>  (1) 
47

$$$$
