F366
     RDKit          3D

 22 22  0  0  0  0  0  0  0  0999 V2000
  -18.0714   11.4245   23.6075 C   0  0  0  0  0  0  0  0  0  0  0  0
  -17.3849   12.6175   24.2612 C   0  0  0  0  0  0  0  0  0  0  0  0
  -18.3624   13.4855   24.9120 N   0  0  0  0  0  0  0  0  0  0  0  0
  -18.6216   13.5324   26.2317 C   0  0  0  0  0  0  0  0  0  0  0  0
  -19.6351   14.4415   26.4314 C   0  0  0  0  0  0  0  0  0  0  0  0
  -20.2946   14.7848   27.7309 C   0  0  0  0  0  0  0  0  0  0  0  0
  -21.5877   13.9884   27.9234 C   0  0  0  0  0  0  0  0  0  0  0  0
  -21.3334   12.6091   27.9065 O   0  0  0  0  0  0  0  0  0  0  0  0
  -19.9722   14.8983   25.1719 C   0  0  0  0  0  0  0  0  0  0  0  0
  -19.1775   14.3020   24.2604 N   0  0  0  0  0  0  0  0  0  0  0  0
  -18.6507   10.8561   24.3658 H   0  0  0  0  0  0  0  0  0  0  0  0
  -17.3072   10.7529   23.1628 H   0  0  0  0  0  0  0  0  0  0  0  0
  -18.7562   11.7641   22.8021 H   0  0  0  0  0  0  0  0  0  0  0  0
  -16.8307   13.1960   23.4911 H   0  0  0  0  0  0  0  0  0  0  0  0
  -16.6524   12.2474   25.0112 H   0  0  0  0  0  0  0  0  0  0  0  0
  -18.1239   12.9388   26.9882 H   0  0  0  0  0  0  0  0  0  0  0  0
  -20.5158   15.8736   27.7629 H   0  0  0  0  0  0  0  0  0  0  0  0
  -19.5977   14.5555   28.5655 H   0  0  0  0  0  0  0  0  0  0  0  0
  -22.3129   14.2546   27.1213 H   0  0  0  0  0  0  0  0  0  0  0  0
  -22.0512   14.2573   28.8967 H   0  0  0  0  0  0  0  0  0  0  0  0
  -22.2158   12.1586   27.8409 H   0  0  0  0  0  0  0  0  0  0  0  0
  -20.7498   15.6112   24.9324 H   0  0  0  0  0  0  0  0  0  0  0  0
  1  2  1  0
  2  3  1  0
  3  4  1  0
  4  5  2  0
  5  6  1  0
  6  7  1  0
  7  8  1  0
  5  9  1  0
  9 10  2  0
 10  3  1  0
  1 11  1  0
  1 12  1  0
  1 13  1  0
  2 14  1  0
  2 15  1  0
  4 16  1  0
  6 17  1  0
  6 18  1  0
  7 19  1  0
  7 20  1  0
  8 21  1  0
  9 22  1  0
M  END
>  <CHROM.1>  (1) 
101.65775730,-96.07840479,59.26854061,-168.24635119,-0.69489944,-0.88069489
1.58743325

>  <Name>  (1) 
F366

>  <RI>  (1) 
2.12586e+07

>  <Rbt.Current_Directory>  (1) 
/data/out

>  <Rbt.Executable>  (1) 
rbdock ($Id: //depot/dev/client3/rdock/2013.1/src/exe/rbdock.cxx#4 $)

>  <Rbt.Library>  (1) 
libRbt.so (2013.1, Build901 2013/11/27)

>  <Rbt.Parameter_File>  (1) 
/python_libraries/phenodiscovery/docking/templates/RDOCK_TETHER.conf

>  <Rbt.Receptor>  (1) 
/data/out/rdock-opt/grid/rdock-grid.prm

>  <SCORE>  (1) 
-3.03665

>  <SCORE.INTER>  (1) 
-3.12214

>  <SCORE.INTER.CONST>  (1) 
1

>  <SCORE.INTER.POLAR>  (1) 
-0.639386

>  <SCORE.INTER.REPUL>  (1) 
0

>  <SCORE.INTER.ROT>  (1) 
3

>  <SCORE.INTER.VDW>  (1) 
-9.34823

>  <SCORE.INTER.norm>  (1) 
-0.312214

>  <SCORE.INTRA>  (1) 
0.0854937

>  <SCORE.INTRA.DIHEDRAL>  (1) 
-0.107965

>  <SCORE.INTRA.DIHEDRAL.0>  (1) 
4.87224

>  <SCORE.INTRA.POLAR>  (1) 
0

>  <SCORE.INTRA.POLAR.0>  (1) 
0

>  <SCORE.INTRA.REPUL>  (1) 
0

>  <SCORE.INTRA.REPUL.0>  (1) 
0

>  <SCORE.INTRA.VDW>  (1) 
0.139476

>  <SCORE.INTRA.VDW.0>  (1) 
-1.46469

>  <SCORE.INTRA.norm>  (1) 
0.00854937

>  <SCORE.RESTR>  (1) 
0

>  <SCORE.RESTR.CAVITY>  (1) 
0

>  <SCORE.RESTR.norm>  (1) 
0

>  <SCORE.SYSTEM>  (1) 
0

>  <SCORE.SYSTEM.CONST>  (1) 
0

>  <SCORE.SYSTEM.DIHEDRAL>  (1) 
0

>  <SCORE.SYSTEM.norm>  (1) 
0

>  <SCORE.heavy>  (1) 
10

>  <SCORE.norm>  (1) 
-0.303665

>  <TETHERED ATOMS>  (1) 
2,3,4,5,6,1,9

>  <skeledock_score>  (1) 
31

$$$$
