F529
     RDKit          3D

 23 23  0  0  0  0  0  0  0  0999 V2000
  -17.5731   12.1031   24.5673 C   0  0  0  0  0  0  0  0  0  0  0  0
  -18.7070   12.1678   25.4838 N   0  0  0  0  0  0  0  0  0  0  0  0
  -18.9451   13.2796   26.3735 C   0  0  0  0  0  0  0  0  0  0  0  0
  -18.4334   13.2544   27.6882 C   0  0  0  0  0  0  0  0  0  0  0  0
  -18.6554   14.3177   28.5634 C   0  0  0  0  0  0  0  0  0  0  0  0
  -19.3871   15.4252   28.1452 C   0  0  0  0  0  0  0  0  0  0  0  0
  -19.9010   15.4744   26.8502 C   0  0  0  0  0  0  0  0  0  0  0  0
  -19.6936   14.4127   25.9524 C   0  0  0  0  0  0  0  0  0  0  0  0
  -20.3404   14.5671   24.3079 S   0  0  0  0  0  0  0  0  0  0  0  0
  -21.3985   15.6337   24.2668 O   0  0  0  0  0  0  0  0  0  0  0  0
  -19.2430   14.9565   23.3571 O   0  0  0  0  0  0  0  0  0  0  0  0
  -21.0108   13.0091   23.7636 C   0  0  0  0  0  0  0  0  0  0  0  0
  -17.5481   13.0132   23.9316 H   0  0  0  0  0  0  0  0  0  0  0  0
  -16.6262   12.0118   25.1390 H   0  0  0  0  0  0  0  0  0  0  0  0
  -17.6697   11.2134   23.9096 H   0  0  0  0  0  0  0  0  0  0  0  0
  -19.3776   11.3720   25.4418 H   0  0  0  0  0  0  0  0  0  0  0  0
  -17.8640   12.4096   28.0498 H   0  0  0  0  0  0  0  0  0  0  0  0
  -18.2577   14.2822   29.5695 H   0  0  0  0  0  0  0  0  0  0  0  0
  -19.5553   16.2500   28.8257 H   0  0  0  0  0  0  0  0  0  0  0  0
  -20.4588   16.3516   26.5504 H   0  0  0  0  0  0  0  0  0  0  0  0
  -21.8519   12.7006   24.4158 H   0  0  0  0  0  0  0  0  0  0  0  0
  -21.3766   13.1082   22.7209 H   0  0  0  0  0  0  0  0  0  0  0  0
  -20.2180   12.2337   23.8010 H   0  0  0  0  0  0  0  0  0  0  0  0
  1  2  1  0
  2  3  1  0
  3  4  2  0
  4  5  1  0
  5  6  2  0
  6  7  1  0
  7  8  2  0
  8  9  1  0
  9 10  2  0
  9 11  2  0
  9 12  1  0
  3  8  1  0
  1 13  1  0
  1 14  1  0
  1 15  1  0
  2 16  1  0
  4 17  1  0
  5 18  1  0
  6 19  1  0
  7 20  1  0
 12 21  1  0
 12 22  1  0
 12 23  1  0
M  END
>  <CHROM.1>  (1) 
-92.18590970,163.46567805,1.06638487,0.94276349,-1.94924141

>  <Name>  (1) 
F529

>  <RI>  (1) 
1.27348e+07

>  <Rbt.Current_Directory>  (1) 
/data/out

>  <Rbt.Executable>  (1) 
rbdock ($Id: //depot/dev/client3/rdock/2013.1/src/exe/rbdock.cxx#4 $)

>  <Rbt.Library>  (1) 
libRbt.so (2013.1, Build901 2013/11/27)

>  <Rbt.Parameter_File>  (1) 
/python_libraries/phenodiscovery/docking/templates/RDOCK_TETHER.conf

>  <Rbt.Receptor>  (1) 
/data/out/rdock-opt/grid/rdock-grid.prm

>  <SCORE>  (1) 
12.5616

>  <SCORE.INTER>  (1) 
5.27204

>  <SCORE.INTER.CONST>  (1) 
1

>  <SCORE.INTER.POLAR>  (1) 
0

>  <SCORE.INTER.REPUL>  (1) 
0

>  <SCORE.INTER.ROT>  (1) 
2

>  <SCORE.INTER.VDW>  (1) 
-2.12796

>  <SCORE.INTER.norm>  (1) 
0.439337

>  <SCORE.INTRA>  (1) 
6.61813

>  <SCORE.INTRA.DIHEDRAL>  (1) 
11.6378

>  <SCORE.INTRA.DIHEDRAL.0>  (1) 
2.3026

>  <SCORE.INTRA.POLAR>  (1) 
0.00506481

>  <SCORE.INTRA.POLAR.0>  (1) 
-0.00506481

>  <SCORE.INTRA.REPUL>  (1) 
0

>  <SCORE.INTRA.REPUL.0>  (1) 
0

>  <SCORE.INTRA.VDW>  (1) 
0.781995

>  <SCORE.INTRA.VDW.0>  (1) 
-1.08769

>  <SCORE.INTRA.norm>  (1) 
0.551511

>  <SCORE.RESTR>  (1) 
0.671451

>  <SCORE.RESTR.CAVITY>  (1) 
0.671451

>  <SCORE.RESTR.norm>  (1) 
0.0559542

>  <SCORE.SYSTEM>  (1) 
0

>  <SCORE.SYSTEM.CONST>  (1) 
0

>  <SCORE.SYSTEM.DIHEDRAL>  (1) 
0

>  <SCORE.SYSTEM.norm>  (1) 
0

>  <SCORE.heavy>  (1) 
12

>  <SCORE.norm>  (1) 
1.0468

>  <TETHERED ATOMS>  (1) 
3,2,1,6,7,4,8,5

>  <skeledock_score>  (1) 
52

$$$$
