F741
     RDKit          3D

 25 27  0  0  0  0  0  0  0  0999 V2000
  -19.7928   16.2494   26.1829 O   0  0  0  0  0  0  0  0  0  0  0  0
  -19.4669   15.2733   26.9092 C   0  0  0  0  0  0  0  0  0  0  0  0
  -18.8432   14.1038   26.3420 N   0  0  0  0  0  0  0  0  0  0  0  0
  -18.9474   13.5817   24.9691 C   0  0  0  0  0  0  0  0  0  0  0  0
  -20.1486   12.6831   24.7241 C   0  0  0  0  0  0  0  0  0  0  0  0
  -18.7414   12.0927   24.7453 C   0  0  0  0  0  0  0  0  0  0  0  0
  -19.6600   15.3827   28.3667 C   0  0  0  0  0  0  0  0  0  0  0  0
  -20.3785   16.3639   29.0494 C   0  0  0  0  0  0  0  0  0  0  0  0
  -20.3423   16.1251   30.3837 N   0  0  0  0  0  0  0  0  0  0  0  0
  -19.6285   15.0254   30.5531 N   0  0  0  0  0  0  0  0  0  0  0  0
  -19.3483   14.4060   31.7249 C   0  0  0  0  0  0  0  0  0  0  0  0
  -18.5923   13.2266   31.6781 C   0  0  0  0  0  0  0  0  0  0  0  0
  -18.1683   12.7414   30.4247 C   0  0  0  0  0  0  0  0  0  0  0  0
  -18.4869   13.4125   29.2796 N   0  0  0  0  0  0  0  0  0  0  0  0
  -19.2087   14.5568   29.3730 C   0  0  0  0  0  0  0  0  0  0  0  0
  -18.2404   13.5345   26.9754 H   0  0  0  0  0  0  0  0  0  0  0  0
  -18.7076   14.2742   24.1341 H   0  0  0  0  0  0  0  0  0  0  0  0
  -20.7741   12.4347   25.6048 H   0  0  0  0  0  0  0  0  0  0  0  0
  -20.5822   12.7670   23.7052 H   0  0  0  0  0  0  0  0  0  0  0  0
  -18.3490   11.8399   23.7379 H   0  0  0  0  0  0  0  0  0  0  0  0
  -18.4965   11.4706   25.6266 H   0  0  0  0  0  0  0  0  0  0  0  0
  -20.8955   17.2017   28.6005 H   0  0  0  0  0  0  0  0  0  0  0  0
  -19.7016   14.8066   32.6665 H   0  0  0  0  0  0  0  0  0  0  0  0
  -18.3436   12.6954   32.5875 H   0  0  0  0  0  0  0  0  0  0  0  0
  -17.5893   11.8295   30.3676 H   0  0  0  0  0  0  0  0  0  0  0  0
  1  2  2  0
  2  3  1  0
  3  4  1  0
  4  5  1  0
  5  6  1  0
  2  7  1  0
  7  8  1  0
  8  9  2  0
  9 10  1  0
 10 11  1  0
 11 12  2  0
 12 13  1  0
 13 14  2  0
 14 15  1  0
  6  4  1  0
  7 15  2  0
 15 10  1  0
  3 16  1  0
  4 17  1  0
  5 18  1  0
  5 19  1  0
  6 20  1  0
  6 21  1  0
  8 22  1  0
 11 23  1  0
 12 24  1  0
 13 25  1  0
M  END
>  <CHROM.1>  (1) 
-85.29582768,11.81463755,1.42114048,1.11055571,-1.73654939

>  <Name>  (1) 
F741

>  <RI>  (1) 
3.18145e+07

>  <Rbt.Current_Directory>  (1) 
/data/out

>  <Rbt.Executable>  (1) 
rbdock ($Id: //depot/dev/client3/rdock/2013.1/src/exe/rbdock.cxx#4 $)

>  <Rbt.Library>  (1) 
libRbt.so (2013.1, Build901 2013/11/27)

>  <Rbt.Parameter_File>  (1) 
/python_libraries/phenodiscovery/docking/templates/RDOCK_TETHER.conf

>  <Rbt.Receptor>  (1) 
/data/out/rdock-opt/grid/rdock-grid.prm

>  <SCORE>  (1) 
-6.02866

>  <SCORE.INTER>  (1) 
-3.53156

>  <SCORE.INTER.CONST>  (1) 
1

>  <SCORE.INTER.POLAR>  (1) 
0

>  <SCORE.INTER.REPUL>  (1) 
0

>  <SCORE.INTER.ROT>  (1) 
2

>  <SCORE.INTER.VDW>  (1) 
-10.9316

>  <SCORE.INTER.norm>  (1) 
-0.235438

>  <SCORE.INTRA>  (1) 
-2.49709

>  <SCORE.INTRA.DIHEDRAL>  (1) 
-0.48784

>  <SCORE.INTRA.DIHEDRAL.0>  (1) 
2.00412

>  <SCORE.INTRA.POLAR>  (1) 
-0.324481

>  <SCORE.INTRA.POLAR.0>  (1) 
0

>  <SCORE.INTRA.REPUL>  (1) 
0

>  <SCORE.INTRA.REPUL.0>  (1) 
0

>  <SCORE.INTRA.VDW>  (1) 
-1.14994

>  <SCORE.INTRA.VDW.0>  (1) 
-0.538484

>  <SCORE.INTRA.norm>  (1) 
-0.166473

>  <SCORE.RESTR>  (1) 
0

>  <SCORE.RESTR.CAVITY>  (1) 
0

>  <SCORE.RESTR.norm>  (1) 
0

>  <SCORE.SYSTEM>  (1) 
0

>  <SCORE.SYSTEM.CONST>  (1) 
0

>  <SCORE.SYSTEM.DIHEDRAL>  (1) 
0

>  <SCORE.SYSTEM.norm>  (1) 
0

>  <SCORE.heavy>  (1) 
15

>  <SCORE.norm>  (1) 
-0.401911

>  <TETHERED ATOMS>  (1) 
2,3,4,6,7,15,14,8,13

>  <skeledock_score>  (1) 
27

$$$$
