F362
     RDKit          3D

 30 31  0  0  0  0  0  0  0  0999 V2000
  -18.9772   12.9811   25.2670 C   0  0  0  0  0  0  0  0  0  0  0  0
  -20.1771   13.2376   26.1736 C   0  0  0  0  0  0  0  0  0  0  0  0
  -19.9261   14.3772   27.0666 N   0  0  0  0  0  0  0  0  0  0  0  0
  -19.8133   15.7297   26.5072 C   0  0  0  0  0  0  0  0  0  0  0  0
  -18.3939   16.2600   26.6776 C   0  0  0  0  0  0  0  0  0  0  0  0
  -19.8111   14.1695   28.4872 C   0  0  0  0  0  0  0  0  0  0  0  0
  -18.8615   13.2744   29.0111 C   0  0  0  0  0  0  0  0  0  0  0  0
  -18.7103   13.1801   30.4127 C   0  0  0  0  0  0  0  0  0  0  0  0
  -17.6872   12.2590   30.9962 C   0  0  0  0  0  0  0  0  0  0  0  0
  -19.4736   13.9557   31.2395 N   0  0  0  0  0  0  0  0  0  0  0  0
  -20.3791   14.8014   30.6934 C   0  0  0  0  0  0  0  0  0  0  0  0
  -21.2022   15.6155   31.3747 N   0  0  0  0  0  0  0  0  0  0  0  0
  -21.8742   16.2142   30.3554 C   0  0  0  0  0  0  0  0  0  0  0  0
  -21.4802   15.7866   29.1312 N   0  0  0  0  0  0  0  0  0  0  0  0
  -20.5353   14.9009   29.3740 N   0  0  0  0  0  0  0  0  0  0  0  0
  -18.8249   13.8323   24.5703 H   0  0  0  0  0  0  0  0  0  0  0  0
  -18.0614   12.8381   25.8789 H   0  0  0  0  0  0  0  0  0  0  0  0
  -19.1538   12.0638   24.6667 H   0  0  0  0  0  0  0  0  0  0  0  0
  -21.0781   13.4246   25.5549 H   0  0  0  0  0  0  0  0  0  0  0  0
  -20.3737   12.3164   26.7645 H   0  0  0  0  0  0  0  0  0  0  0  0
  -20.0814   15.7160   25.4286 H   0  0  0  0  0  0  0  0  0  0  0  0
  -20.5137   16.4272   27.0155 H   0  0  0  0  0  0  0  0  0  0  0  0
  -18.1214   16.2751   27.7543 H   0  0  0  0  0  0  0  0  0  0  0  0
  -18.3307   17.2935   26.2766 H   0  0  0  0  0  0  0  0  0  0  0  0
  -17.6724   15.6199   26.1279 H   0  0  0  0  0  0  0  0  0  0  0  0
  -18.2323   12.6909   28.3502 H   0  0  0  0  0  0  0  0  0  0  0  0
  -17.8070   11.2408   30.5693 H   0  0  0  0  0  0  0  0  0  0  0  0
  -17.8029   12.1966   32.0991 H   0  0  0  0  0  0  0  0  0  0  0  0
  -16.6699   12.6369   30.7624 H   0  0  0  0  0  0  0  0  0  0  0  0
  -22.6469   16.9558   30.5063 H   0  0  0  0  0  0  0  0  0  0  0  0
  1  2  1  0
  2  3  1  0
  3  4  1  0
  4  5  1  0
  3  6  1  0
  6  7  2  0
  7  8  1  0
  8  9  1  0
  8 10  2  0
 10 11  1  0
 11 12  2  0
 12 13  1  0
 13 14  2  0
 14 15  1  0
 15  6  1  0
 15 11  1  0
  1 16  1  0
  1 17  1  0
  1 18  1  0
  2 19  1  0
  2 20  1  0
  4 21  1  0
  4 22  1  0
  5 23  1  0
  5 24  1  0
  5 25  1  0
  7 26  1  0
  9 27  1  0
  9 28  1  0
  9 29  1  0
 13 30  1  0
M  END
>  <CHROM.1>  (1) 
67.58892140,-113.41744568,56.57711265,1.09551148,0.96539731,-1.35289403

>  <Name>  (1) 
F362

>  <RI>  (1) 
1.60477e+07

>  <Rbt.Current_Directory>  (1) 
/data/out

>  <Rbt.Executable>  (1) 
rbdock ($Id: //depot/dev/client3/rdock/2013.1/src/exe/rbdock.cxx#4 $)

>  <Rbt.Library>  (1) 
libRbt.so (2013.1, Build901 2013/11/27)

>  <Rbt.Parameter_File>  (1) 
/python_libraries/phenodiscovery/docking/templates/RDOCK_TETHER.conf

>  <Rbt.Receptor>  (1) 
/data/out/rdock-opt/grid/rdock-grid.prm

>  <SCORE>  (1) 
-0.895778

>  <SCORE.INTER>  (1) 
-0.926636

>  <SCORE.INTER.CONST>  (1) 
1

>  <SCORE.INTER.POLAR>  (1) 
0

>  <SCORE.INTER.REPUL>  (1) 
0

>  <SCORE.INTER.ROT>  (1) 
3

>  <SCORE.INTER.VDW>  (1) 
-9.32664

>  <SCORE.INTER.norm>  (1) 
-0.0617757

>  <SCORE.INTRA>  (1) 
0.0308577

>  <SCORE.INTRA.DIHEDRAL>  (1) 
-0.315389

>  <SCORE.INTRA.DIHEDRAL.0>  (1) 
13.335

>  <SCORE.INTRA.POLAR>  (1) 
0

>  <SCORE.INTRA.POLAR.0>  (1) 
0

>  <SCORE.INTRA.REPUL>  (1) 
0

>  <SCORE.INTRA.REPUL.0>  (1) 
0

>  <SCORE.INTRA.VDW>  (1) 
0.188552

>  <SCORE.INTRA.VDW.0>  (1) 
-2.00614

>  <SCORE.INTRA.norm>  (1) 
0.00205718

>  <SCORE.RESTR>  (1) 
0

>  <SCORE.RESTR.CAVITY>  (1) 
0

>  <SCORE.RESTR.norm>  (1) 
0

>  <SCORE.SYSTEM>  (1) 
0

>  <SCORE.SYSTEM.CONST>  (1) 
0

>  <SCORE.SYSTEM.DIHEDRAL>  (1) 
0

>  <SCORE.SYSTEM.norm>  (1) 
0

>  <SCORE.heavy>  (1) 
15

>  <SCORE.norm>  (1) 
-0.0597185

>  <TETHERED ATOMS>  (1) 
4,3,2,1,5,8,10,11,12,13,14

>  <skeledock_score>  (1) 
46

$$$$
