F618
     RDKit          3D

 26 26  0  0  0  0  0  0  0  0999 V2000
  -19.2193   15.7579   26.2782 C   0  0  0  0  0  0  0  0  0  0  0  0
  -20.1617   14.5834   25.9887 C   0  0  0  0  0  0  0  0  0  0  0  0
  -19.3875   13.3715   25.4469 C   0  0  0  0  0  0  0  0  0  0  0  0
  -18.4367   12.9576   26.3861 O   0  0  0  0  0  0  0  0  0  0  0  0
  -20.9513   14.2386   27.1904 N   0  0  0  0  0  0  0  0  0  0  0  0
  -22.1739   13.4299   27.0765 C   0  0  0  0  0  0  0  0  0  0  0  0
  -20.4150   14.5458   28.4981 C   0  0  0  0  0  0  0  0  0  0  0  0
  -19.5992   13.6416   29.1133 N   0  0  0  0  0  0  0  0  0  0  0  0
  -19.0817   13.8508   30.3524 C   0  0  0  0  0  0  0  0  0  0  0  0
  -19.3821   15.0228   31.0447 C   0  0  0  0  0  0  0  0  0  0  0  0
  -20.2072   15.9745   30.4462 C   0  0  0  0  0  0  0  0  0  0  0  0
  -20.7277   15.7470   29.1694 C   0  0  0  0  0  0  0  0  0  0  0  0
  -21.4968   16.7047   28.5950 F   0  0  0  0  0  0  0  0  0  0  0  0
  -18.4341   15.4756   27.0098 H   0  0  0  0  0  0  0  0  0  0  0  0
  -18.7241   16.0875   25.3401 H   0  0  0  0  0  0  0  0  0  0  0  0
  -19.7971   16.6140   26.6862 H   0  0  0  0  0  0  0  0  0  0  0  0
  -20.8460   14.9092   25.1730 H   0  0  0  0  0  0  0  0  0  0  0  0
  -20.1014   12.5388   25.2552 H   0  0  0  0  0  0  0  0  0  0  0  0
  -18.8847   13.6212   24.4868 H   0  0  0  0  0  0  0  0  0  0  0  0
  -18.9256   12.8445   27.2424 H   0  0  0  0  0  0  0  0  0  0  0  0
  -22.1763   12.6288   27.8462 H   0  0  0  0  0  0  0  0  0  0  0  0
  -23.0666   14.0758   27.2032 H   0  0  0  0  0  0  0  0  0  0  0  0
  -22.2481   12.9378   26.0862 H   0  0  0  0  0  0  0  0  0  0  0  0
  -18.4396   13.1045   30.8004 H   0  0  0  0  0  0  0  0  0  0  0  0
  -18.9745   15.1950   32.0325 H   0  0  0  0  0  0  0  0  0  0  0  0
  -20.4378   16.8932   30.9700 H   0  0  0  0  0  0  0  0  0  0  0  0
  1  2  1  0
  2  3  1  0
  3  4  1  0
  2  5  1  0
  5  6  1  0
  5  7  1  0
  7  8  2  0
  8  9  1  0
  9 10  2  0
 10 11  1  0
 11 12  2  0
 12 13  1  0
  7 12  1  0
  1 14  1  0
  1 15  1  0
  1 16  1  0
  2 17  1  0
  3 18  1  0
  3 19  1  0
  4 20  1  0
  6 21  1  0
  6 22  1  0
  6 23  1  0
  9 24  1  0
 10 25  1  0
 11 26  1  0
M  END
>  <CHROM.1>  (1) 
59.88757776,51.96641469,162.31341622,-87.26672449,-1.86012810,0.80246138
-1.84896622

>  <Name>  (1) 
F618

>  <RI>  (1) 
2.24468e+07

>  <Rbt.Current_Directory>  (1) 
/data/out

>  <Rbt.Executable>  (1) 
rbdock ($Id: //depot/dev/client3/rdock/2013.1/src/exe/rbdock.cxx#4 $)

>  <Rbt.Library>  (1) 
libRbt.so (2013.1, Build901 2013/11/27)

>  <Rbt.Parameter_File>  (1) 
/python_libraries/phenodiscovery/docking/templates/RDOCK_TETHER.conf

>  <Rbt.Receptor>  (1) 
/data/out/rdock-opt/grid/rdock-grid.prm

>  <SCORE>  (1) 
1.74042

>  <SCORE.INTER>  (1) 
2.07101

>  <SCORE.INTER.CONST>  (1) 
1

>  <SCORE.INTER.POLAR>  (1) 
0

>  <SCORE.INTER.REPUL>  (1) 
0

>  <SCORE.INTER.ROT>  (1) 
3

>  <SCORE.INTER.VDW>  (1) 
-6.32899

>  <SCORE.INTER.norm>  (1) 
0.159309

>  <SCORE.INTRA>  (1) 
-0.330596

>  <SCORE.INTRA.DIHEDRAL>  (1) 
9.02345

>  <SCORE.INTRA.DIHEDRAL.0>  (1) 
6.87028

>  <SCORE.INTRA.POLAR>  (1) 
-0.999861

>  <SCORE.INTRA.POLAR.0>  (1) 
0

>  <SCORE.INTRA.REPUL>  (1) 
0

>  <SCORE.INTRA.REPUL.0>  (1) 
0

>  <SCORE.INTRA.VDW>  (1) 
-1.4428

>  <SCORE.INTRA.VDW.0>  (1) 
-0.664711

>  <SCORE.INTRA.norm>  (1) 
-0.0254304

>  <SCORE.RESTR>  (1) 
0

>  <SCORE.RESTR.CAVITY>  (1) 
0

>  <SCORE.RESTR.norm>  (1) 
0

>  <SCORE.SYSTEM>  (1) 
0

>  <SCORE.SYSTEM.CONST>  (1) 
0

>  <SCORE.SYSTEM.DIHEDRAL>  (1) 
0

>  <SCORE.SYSTEM.norm>  (1) 
0

>  <SCORE.heavy>  (1) 
13

>  <SCORE.norm>  (1) 
0.133878

>  <TETHERED ATOMS>  (1) 
7,12,11,10,9,2,5,3,4,13

>  <skeledock_score>  (1) 
53

$$$$
