F741
     RDKit          3D

 25 27  0  0  0  0  0  0  0  0999 V2000
  -17.2438   12.0625   25.7010 O   0  0  0  0  0  0  0  0  0  0  0  0
  -18.3282   12.1235   25.0602 C   0  0  0  0  0  0  0  0  0  0  0  0
  -18.4723   11.3897   23.8362 N   0  0  0  0  0  0  0  0  0  0  0  0
  -17.3487   10.6652   23.2504 C   0  0  0  0  0  0  0  0  0  0  0  0
  -17.0542   11.0481   21.8103 C   0  0  0  0  0  0  0  0  0  0  0  0
  -16.1618   11.5581   22.9310 C   0  0  0  0  0  0  0  0  0  0  0  0
  -19.4291   12.9438   25.5961 C   0  0  0  0  0  0  0  0  0  0  0  0
  -20.7857   12.8078   25.3027 C   0  0  0  0  0  0  0  0  0  0  0  0
  -21.5079   13.7186   25.9986 N   0  0  0  0  0  0  0  0  0  0  0  0
  -20.6459   14.4137   26.7195 N   0  0  0  0  0  0  0  0  0  0  0  0
  -20.9307   15.4172   27.5820 C   0  0  0  0  0  0  0  0  0  0  0  0
  -19.8662   16.0079   28.2746 C   0  0  0  0  0  0  0  0  0  0  0  0
  -18.5606   15.5300   28.0478 C   0  0  0  0  0  0  0  0  0  0  0  0
  -18.3397   14.5124   27.1652 N   0  0  0  0  0  0  0  0  0  0  0  0
  -19.3989   13.9780   26.5073 C   0  0  0  0  0  0  0  0  0  0  0  0
  -19.4186   11.2467   23.4212 H   0  0  0  0  0  0  0  0  0  0  0  0
  -17.1304    9.6298   23.5873 H   0  0  0  0  0  0  0  0  0  0  0  0
  -16.5999   10.2360   21.2046 H   0  0  0  0  0  0  0  0  0  0  0  0
  -17.7163   11.8253   21.3717 H   0  0  0  0  0  0  0  0  0  0  0  0
  -15.1763   11.0499   22.9911 H   0  0  0  0  0  0  0  0  0  0  0  0
  -16.2957   12.6373   23.1604 H   0  0  0  0  0  0  0  0  0  0  0  0
  -21.2200   12.0869   24.6228 H   0  0  0  0  0  0  0  0  0  0  0  0
  -21.9497   15.7490   27.7355 H   0  0  0  0  0  0  0  0  0  0  0  0
  -20.0443   16.8130   28.9753 H   0  0  0  0  0  0  0  0  0  0  0  0
  -17.7262   15.9696   28.5778 H   0  0  0  0  0  0  0  0  0  0  0  0
  1  2  2  0
  2  3  1  0
  3  4  1  0
  4  5  1  0
  5  6  1  0
  2  7  1  0
  7  8  1  0
  8  9  2  0
  9 10  1  0
 10 11  1  0
 11 12  2  0
 12 13  1  0
 13 14  2  0
 14 15  1  0
  6  4  1  0
  7 15  2  0
 15 10  1  0
  3 16  1  0
  4 17  1  0
  5 18  1  0
  5 19  1  0
  6 20  1  0
  6 21  1  0
  8 22  1  0
 11 23  1  0
 12 24  1  0
 13 25  1  0
M  END
>  <CHROM.1>  (1) 
-125.19865410,-157.69461140,-1.32269021,-0.11576710,0.72837299

>  <Name>  (1) 
F741

>  <RI>  (1) 
1.49631e+07

>  <Rbt.Current_Directory>  (1) 
/data/out

>  <Rbt.Executable>  (1) 
rbdock ($Id: //depot/dev/client3/rdock/2013.1/src/exe/rbdock.cxx#4 $)

>  <Rbt.Library>  (1) 
libRbt.so (2013.1, Build901 2013/11/27)

>  <Rbt.Parameter_File>  (1) 
/python_libraries/phenodiscovery/docking/templates/RDOCK_TETHER.conf

>  <Rbt.Receptor>  (1) 
/data/out/rdock-opt/grid/rdock-grid.prm

>  <SCORE>  (1) 
-3.03785

>  <SCORE.INTER>  (1) 
-3.73184

>  <SCORE.INTER.CONST>  (1) 
1

>  <SCORE.INTER.POLAR>  (1) 
0

>  <SCORE.INTER.REPUL>  (1) 
0

>  <SCORE.INTER.ROT>  (1) 
2

>  <SCORE.INTER.VDW>  (1) 
-11.1318

>  <SCORE.INTER.norm>  (1) 
-0.248789

>  <SCORE.INTRA>  (1) 
0.693988

>  <SCORE.INTRA.DIHEDRAL>  (1) 
0.878546

>  <SCORE.INTRA.DIHEDRAL.0>  (1) 
1.67467

>  <SCORE.INTRA.POLAR>  (1) 
0.0327103

>  <SCORE.INTRA.POLAR.0>  (1) 
-0.0327103

>  <SCORE.INTRA.REPUL>  (1) 
0

>  <SCORE.INTRA.REPUL.0>  (1) 
0

>  <SCORE.INTRA.VDW>  (1) 
0.143499

>  <SCORE.INTRA.VDW.0>  (1) 
-1.78731

>  <SCORE.INTRA.norm>  (1) 
0.0462658

>  <SCORE.RESTR>  (1) 
0

>  <SCORE.RESTR.CAVITY>  (1) 
0

>  <SCORE.RESTR.norm>  (1) 
0

>  <SCORE.SYSTEM>  (1) 
0

>  <SCORE.SYSTEM.CONST>  (1) 
0

>  <SCORE.SYSTEM.DIHEDRAL>  (1) 
0

>  <SCORE.SYSTEM.norm>  (1) 
0

>  <SCORE.heavy>  (1) 
15

>  <SCORE.norm>  (1) 
-0.202523

>  <TETHERED ATOMS>  (1) 
2,7,15,14,13,11,12

>  <skeledock_score>  (1) 
37

$$$$
