F199
     RDKit          3D

 25 26  0  0  0  0  0  0  0  0999 V2000
  -20.2457   14.8341   32.6398 C   0  0  0  0  0  0  0  0  0  0  0  0
  -20.0705   14.8241   31.1585 C   0  0  0  0  0  0  0  0  0  0  0  0
  -19.2754   13.9648   30.4315 C   0  0  0  0  0  0  0  0  0  0  0  0
  -19.4672   14.3778   29.1267 C   0  0  0  0  0  0  0  0  0  0  0  0
  -20.3234   15.4190   29.1030 N   0  0  0  0  0  0  0  0  0  0  0  0
  -20.6650   15.6564   30.3366 O   0  0  0  0  0  0  0  0  0  0  0  0
  -18.8200   13.8242   27.9264 C   0  0  0  0  0  0  0  0  0  0  0  0
  -18.0647   12.8221   28.0442 O   0  0  0  0  0  0  0  0  0  0  0  0
  -19.0222   14.4303   26.6411 N   0  0  0  0  0  0  0  0  0  0  0  0
  -18.7692   13.7622   25.3985 C   0  0  0  0  0  0  0  0  0  0  0  0
  -18.7559   14.3050   24.1261 C   0  0  0  0  0  0  0  0  0  0  0  0
  -18.3800   13.3479   23.2541 N   0  0  0  0  0  0  0  0  0  0  0  0
  -18.1685   12.2350   23.9423 N   0  0  0  0  0  0  0  0  0  0  0  0
  -17.6728   10.9991   23.3529 C   0  0  0  0  0  0  0  0  0  0  0  0
  -18.3728   12.4531   25.2549 C   0  0  0  0  0  0  0  0  0  0  0  0
  -19.6365   14.0337   33.1107 H   0  0  0  0  0  0  0  0  0  0  0  0
  -19.9259   15.8173   33.0430 H   0  0  0  0  0  0  0  0  0  0  0  0
  -21.3149   14.6680   32.8865 H   0  0  0  0  0  0  0  0  0  0  0  0
  -18.6411   13.1719   30.8050 H   0  0  0  0  0  0  0  0  0  0  0  0
  -19.3303   15.4272   26.5987 H   0  0  0  0  0  0  0  0  0  0  0  0
  -18.9675   15.3285   23.8491 H   0  0  0  0  0  0  0  0  0  0  0  0
  -18.1101   10.1236   23.8783 H   0  0  0  0  0  0  0  0  0  0  0  0
  -17.9568   10.9488   22.2805 H   0  0  0  0  0  0  0  0  0  0  0  0
  -16.5667   10.9643   23.4392 H   0  0  0  0  0  0  0  0  0  0  0  0
  -18.2271   11.7234   26.0414 H   0  0  0  0  0  0  0  0  0  0  0  0
  1  2  1  0
  2  3  2  0
  3  4  1  0
  4  5  2  0
  5  6  1  0
  4  7  1  0
  7  8  2  0
  7  9  1  0
  9 10  1  0
 10 11  1  0
 11 12  2  0
 12 13  1  0
 13 14  1  0
 13 15  1  0
  6  2  1  0
 10 15  2  0
  1 16  1  0
  1 17  1  0
  1 18  1  0
  3 19  1  0
  9 20  1  0
 11 21  1  0
 14 22  1  0
 14 23  1  0
 14 24  1  0
 15 25  1  0
M  END
>  <CHROM.1>  (1) 
4.40585080,-170.40118731,-2.08111915,1.01231650,-1.38066507

>  <Name>  (1) 
F199

>  <RI>  (1) 
2.05872e+07

>  <Rbt.Current_Directory>  (1) 
/data/out

>  <Rbt.Executable>  (1) 
rbdock ($Id: //depot/dev/client3/rdock/2013.1/src/exe/rbdock.cxx#4 $)

>  <Rbt.Library>  (1) 
libRbt.so (2013.1, Build901 2013/11/27)

>  <Rbt.Parameter_File>  (1) 
/python_libraries/phenodiscovery/docking/templates/RDOCK_TETHER.conf

>  <Rbt.Receptor>  (1) 
/data/out/rdock-opt/grid/rdock-grid.prm

>  <SCORE>  (1) 
-1.66157

>  <SCORE.INTER>  (1) 
-1.07335

>  <SCORE.INTER.CONST>  (1) 
1

>  <SCORE.INTER.POLAR>  (1) 
0

>  <SCORE.INTER.REPUL>  (1) 
0

>  <SCORE.INTER.ROT>  (1) 
2

>  <SCORE.INTER.VDW>  (1) 
-8.47335

>  <SCORE.INTER.norm>  (1) 
-0.0715569

>  <SCORE.INTRA>  (1) 
-0.588221

>  <SCORE.INTRA.DIHEDRAL>  (1) 
-3.91215

>  <SCORE.INTRA.DIHEDRAL.0>  (1) 
4.56283

>  <SCORE.INTRA.POLAR>  (1) 
0

>  <SCORE.INTRA.POLAR.0>  (1) 
0

>  <SCORE.INTRA.REPUL>  (1) 
0

>  <SCORE.INTRA.REPUL.0>  (1) 
0

>  <SCORE.INTRA.VDW>  (1) 
1.36786

>  <SCORE.INTRA.VDW.0>  (1) 
-1.10017

>  <SCORE.INTRA.norm>  (1) 
-0.0392147

>  <SCORE.RESTR>  (1) 
0

>  <SCORE.RESTR.CAVITY>  (1) 
0

>  <SCORE.RESTR.norm>  (1) 
0

>  <SCORE.SYSTEM>  (1) 
0

>  <SCORE.SYSTEM.CONST>  (1) 
0

>  <SCORE.SYSTEM.DIHEDRAL>  (1) 
0

>  <SCORE.SYSTEM.norm>  (1) 
0

>  <SCORE.heavy>  (1) 
15

>  <SCORE.norm>  (1) 
-0.110772

>  <TETHERED ATOMS>  (1) 
2,3,4,7,9,10,11,5,6,15

>  <skeledock_score>  (1) 
36

$$$$
