F740
     RDKit          3D

 26 28  0  0  0  0  0  0  0  0999 V2000
  -20.2409   15.1573   23.8579 O   0  0  0  0  0  0  0  0  0  0  0  0
  -20.6433   14.4722   24.8381 C   0  0  0  0  0  0  0  0  0  0  0  0
  -21.8984   13.7813   24.7482 N   0  0  0  0  0  0  0  0  0  0  0  0
  -22.6597   13.7508   23.5032 C   0  0  0  0  0  0  0  0  0  0  0  0
  -23.3016   12.4064   23.2079 C   0  0  0  0  0  0  0  0  0  0  0  0
  -22.0533   12.8356   22.4531 C   0  0  0  0  0  0  0  0  0  0  0  0
  -19.8171   14.4049   26.0671 C   0  0  0  0  0  0  0  0  0  0  0  0
  -19.6539   15.5631   26.8754 C   0  0  0  0  0  0  0  0  0  0  0  0
  -18.8675   15.5216   28.0409 C   0  0  0  0  0  0  0  0  0  0  0  0
  -18.2536   14.3183   28.3678 C   0  0  0  0  0  0  0  0  0  0  0  0
  -17.4387   14.0330   29.4463 O   0  0  0  0  0  0  0  0  0  0  0  0
  -17.0411   12.6582   29.3488 C   0  0  0  0  0  0  0  0  0  0  0  0
  -17.6718   12.1709   28.1563 O   0  0  0  0  0  0  0  0  0  0  0  0
  -18.3939   13.2095   27.6003 C   0  0  0  0  0  0  0  0  0  0  0  0
  -19.1630   13.2053   26.4402 C   0  0  0  0  0  0  0  0  0  0  0  0
  -22.3554   13.4154   25.6129 H   0  0  0  0  0  0  0  0  0  0  0  0
  -23.1589   14.6760   23.1448 H   0  0  0  0  0  0  0  0  0  0  0  0
  -24.2349   12.4665   22.6095 H   0  0  0  0  0  0  0  0  0  0  0  0
  -23.1218   11.6091   23.9608 H   0  0  0  0  0  0  0  0  0  0  0  0
  -22.2442   13.1501   21.4054 H   0  0  0  0  0  0  0  0  0  0  0  0
  -21.1315   12.2960   22.7595 H   0  0  0  0  0  0  0  0  0  0  0  0
  -20.1410   16.4928   26.6093 H   0  0  0  0  0  0  0  0  0  0  0  0
  -18.7428   16.3982   28.6630 H   0  0  0  0  0  0  0  0  0  0  0  0
  -17.4015   12.0907   30.2322 H   0  0  0  0  0  0  0  0  0  0  0  0
  -15.9372   12.5836   29.2561 H   0  0  0  0  0  0  0  0  0  0  0  0
  -19.2246   12.3055   25.8437 H   0  0  0  0  0  0  0  0  0  0  0  0
  1  2  2  0
  2  3  1  0
  3  4  1  0
  4  5  1  0
  5  6  1  0
  2  7  1  0
  7  8  2  0
  8  9  1  0
  9 10  2  0
 10 11  1  0
 11 12  1  0
 12 13  1  0
 13 14  1  0
 14 15  2  0
  6  4  1  0
  7 15  1  0
 10 14  1  0
  3 16  1  0
  4 17  1  0
  5 18  1  0
  5 19  1  0
  6 20  1  0
  6 21  1  0
  8 22  1  0
  9 23  1  0
 12 24  1  0
 12 25  1  0
 15 26  1  0
M  END
>  <CHROM.1>  (1) 
139.87597841,68.08148582,0.35625228,-0.93260300,0.46253100

>  <Name>  (1) 
F740

>  <RI>  (1) 
2.08613e+07

>  <Rbt.Current_Directory>  (1) 
/data/out

>  <Rbt.Executable>  (1) 
rbdock ($Id: //depot/dev/client3/rdock/2013.1/src/exe/rbdock.cxx#4 $)

>  <Rbt.Library>  (1) 
libRbt.so (2013.1, Build901 2013/11/27)

>  <Rbt.Parameter_File>  (1) 
/python_libraries/phenodiscovery/docking/templates/RDOCK_TETHER.conf

>  <Rbt.Receptor>  (1) 
/data/out/rdock-opt/grid/rdock-grid.prm

>  <SCORE>  (1) 
134.776

>  <SCORE.INTER>  (1) 
128.517

>  <SCORE.INTER.CONST>  (1) 
1

>  <SCORE.INTER.POLAR>  (1) 
0

>  <SCORE.INTER.REPUL>  (1) 
0

>  <SCORE.INTER.ROT>  (1) 
2

>  <SCORE.INTER.VDW>  (1) 
121.117

>  <SCORE.INTER.norm>  (1) 
8.56777

>  <SCORE.INTRA>  (1) 
4.09927

>  <SCORE.INTRA.DIHEDRAL>  (1) 
9.31429

>  <SCORE.INTRA.DIHEDRAL.0>  (1) 
2.93673

>  <SCORE.INTRA.POLAR>  (1) 
0

>  <SCORE.INTRA.POLAR.0>  (1) 
0

>  <SCORE.INTRA.REPUL>  (1) 
0

>  <SCORE.INTRA.REPUL.0>  (1) 
0

>  <SCORE.INTRA.VDW>  (1) 
-0.557871

>  <SCORE.INTRA.VDW.0>  (1) 
-1.41079

>  <SCORE.INTRA.norm>  (1) 
0.273285

>  <SCORE.RESTR>  (1) 
2.16025

>  <SCORE.RESTR.CAVITY>  (1) 
2.16025

>  <SCORE.RESTR.norm>  (1) 
0.144017

>  <SCORE.SYSTEM>  (1) 
0

>  <SCORE.SYSTEM.CONST>  (1) 
0

>  <SCORE.SYSTEM.DIHEDRAL>  (1) 
0

>  <SCORE.SYSTEM.norm>  (1) 
0

>  <SCORE.heavy>  (1) 
15

>  <SCORE.norm>  (1) 
8.98507

>  <TETHERED ATOMS>  (1) 
9,8,7,2,14,10,15

>  <skeledock_score>  (1) 
40

$$$$
