F666
     RDKit          3D

 35 37  0  0  0  0  0  0  0  0999 V2000
  -16.5510   13.4061   24.2466 F   0  0  0  0  0  0  0  0  0  0  0  0
  -17.5505   13.6228   25.1367 C   0  0  0  0  0  0  0  0  0  0  0  0
  -18.4436   14.6804   24.9414 C   0  0  0  0  0  0  0  0  0  0  0  0
  -19.4718   14.9090   25.8617 C   0  0  0  0  0  0  0  0  0  0  0  0
  -19.6180   14.0731   26.9808 C   0  0  0  0  0  0  0  0  0  0  0  0
  -18.7197   13.0095   27.1670 C   0  0  0  0  0  0  0  0  0  0  0  0
  -17.6883   12.7892   26.2499 C   0  0  0  0  0  0  0  0  0  0  0  0
  -20.6639   14.3133   27.9370 N   0  0  0  0  0  0  0  0  0  0  0  0
  -20.7011   15.5921   28.6613 C   0  0  0  0  0  0  0  0  0  0  0  0
  -21.8638   15.6307   29.6533 C   0  0  0  0  0  0  0  0  0  0  0  0
  -23.0874   15.1596   28.9878 N   0  0  0  0  0  0  0  0  0  0  0  0
  -23.0632   13.8696   28.2777 C   0  0  0  0  0  0  0  0  0  0  0  0
  -21.6504   13.2653   28.2334 C   0  0  0  0  0  0  0  0  0  0  0  0
  -24.2971   15.9476   28.9675 C   0  0  0  0  0  0  0  0  0  0  0  0
  -25.3972   15.3974   28.6899 O   0  0  0  0  0  0  0  0  0  0  0  0
  -24.2906   17.4154   29.2935 C   0  0  0  0  0  0  0  0  0  0  0  0
  -25.1272   18.2858   28.3654 C   0  0  0  0  0  0  0  0  0  0  0  0
  -23.6142   18.2881   28.2459 C   0  0  0  0  0  0  0  0  0  0  0  0
  -18.3379   15.3264   24.0793 H   0  0  0  0  0  0  0  0  0  0  0  0
  -20.1576   15.7314   25.7018 H   0  0  0  0  0  0  0  0  0  0  0  0
  -18.8023   12.3651   28.0323 H   0  0  0  0  0  0  0  0  0  0  0  0
  -16.9950   11.9722   26.4036 H   0  0  0  0  0  0  0  0  0  0  0  0
  -19.7449   15.7399   29.2083 H   0  0  0  0  0  0  0  0  0  0  0  0
  -20.8275   16.4268   27.9398 H   0  0  0  0  0  0  0  0  0  0  0  0
  -21.9681   16.6558   30.0629 H   0  0  0  0  0  0  0  0  0  0  0  0
  -21.6377   14.9600   30.5104 H   0  0  0  0  0  0  0  0  0  0  0  0
  -23.4082   14.0268   27.2322 H   0  0  0  0  0  0  0  0  0  0  0  0
  -23.7556   13.1554   28.7729 H   0  0  0  0  0  0  0  0  0  0  0  0
  -21.6225   12.4650   27.4613 H   0  0  0  0  0  0  0  0  0  0  0  0
  -21.4085   12.8042   29.2153 H   0  0  0  0  0  0  0  0  0  0  0  0
  -24.2110   17.7607   30.3460 H   0  0  0  0  0  0  0  0  0  0  0  0
  -25.5395   19.2021   28.8380 H   0  0  0  0  0  0  0  0  0  0  0  0
  -25.6376   17.7683   27.5245 H   0  0  0  0  0  0  0  0  0  0  0  0
  -23.1294   19.2005   28.6530 H   0  0  0  0  0  0  0  0  0  0  0  0
  -23.2332   17.7624   27.3436 H   0  0  0  0  0  0  0  0  0  0  0  0
  1  2  1  0
  2  3  2  0
  3  4  1  0
  4  5  2  0
  5  6  1  0
  6  7  2  0
  5  8  1  0
  8  9  1  0
  9 10  1  0
 10 11  1  0
 11 12  1  0
 12 13  1  0
 11 14  1  0
 14 15  2  0
 14 16  1  0
 16 17  1  0
 17 18  1  0
  2  7  1  0
 13  8  1  0
 18 16  1  0
  3 19  1  0
  4 20  1  0
  6 21  1  0
  7 22  1  0
  9 23  1  0
  9 24  1  0
 10 25  1  0
 10 26  1  0
 12 27  1  0
 12 28  1  0
 13 29  1  0
 13 30  1  0
 16 31  1  0
 17 32  1  0
 17 33  1  0
 18 34  1  0
 18 35  1  0
M  END
>  <CHROM.1>  (1) 
-60.35972743,136.41255500,0.44168940,0.35439613,-1.46657972

>  <Name>  (1) 
F666

>  <RI>  (1) 
1.01251e+07

>  <Rbt.Current_Directory>  (1) 
/data/out

>  <Rbt.Executable>  (1) 
rbdock ($Id: //depot/dev/client3/rdock/2013.1/src/exe/rbdock.cxx#4 $)

>  <Rbt.Library>  (1) 
libRbt.so (2013.1, Build901 2013/11/27)

>  <Rbt.Parameter_File>  (1) 
/python_libraries/phenodiscovery/docking/templates/RDOCK_TETHER.conf

>  <Rbt.Receptor>  (1) 
/data/out/rdock-opt/grid/rdock-grid.prm

>  <SCORE>  (1) 
42.5937

>  <SCORE.INTER>  (1) 
42.3013

>  <SCORE.INTER.CONST>  (1) 
1

>  <SCORE.INTER.POLAR>  (1) 
0

>  <SCORE.INTER.REPUL>  (1) 
0.0154345

>  <SCORE.INTER.ROT>  (1) 
2

>  <SCORE.INTER.VDW>  (1) 
34.8242

>  <SCORE.INTER.norm>  (1) 
2.35007

>  <SCORE.INTRA>  (1) 
0.268199

>  <SCORE.INTRA.DIHEDRAL>  (1) 
1.01051

>  <SCORE.INTRA.DIHEDRAL.0>  (1) 
10.4847

>  <SCORE.INTRA.POLAR>  (1) 
0

>  <SCORE.INTRA.POLAR.0>  (1) 
0

>  <SCORE.INTRA.REPUL>  (1) 
0

>  <SCORE.INTRA.REPUL.0>  (1) 
0

>  <SCORE.INTRA.VDW>  (1) 
-0.237054

>  <SCORE.INTRA.VDW.0>  (1) 
-2.54573

>  <SCORE.INTRA.norm>  (1) 
0.0149

>  <SCORE.RESTR>  (1) 
0.0241493

>  <SCORE.RESTR.CAVITY>  (1) 
0.0241493

>  <SCORE.RESTR.norm>  (1) 
0.00134163

>  <SCORE.SYSTEM>  (1) 
0

>  <SCORE.SYSTEM.CONST>  (1) 
0

>  <SCORE.SYSTEM.DIHEDRAL>  (1) 
0

>  <SCORE.SYSTEM.norm>  (1) 
0

>  <SCORE.heavy>  (1) 
18

>  <SCORE.norm>  (1) 
2.36632

>  <TETHERED ATOMS>  (1) 
2,3,4,5,6,7,8,9,10,11,14,15

>  <skeledock_score>  (1) 
59

$$$$
