F362
     RDKit          3D

 30 31  0  0  0  0  0  0  0  0999 V2000
  -18.9838   11.2642   24.8169 C   0  0  0  0  0  0  0  0  0  0  0  0
  -17.8161   11.9574   24.1171 C   0  0  0  0  0  0  0  0  0  0  0  0
  -17.5235   13.2533   24.7471 N   0  0  0  0  0  0  0  0  0  0  0  0
  -16.8372   14.2848   23.9492 C   0  0  0  0  0  0  0  0  0  0  0  0
  -15.6596   13.6919   23.1795 C   0  0  0  0  0  0  0  0  0  0  0  0
  -17.9793   13.5208   26.0957 C   0  0  0  0  0  0  0  0  0  0  0  0
  -17.4423   12.8185   27.1929 C   0  0  0  0  0  0  0  0  0  0  0  0
  -17.9460   13.0643   28.4879 C   0  0  0  0  0  0  0  0  0  0  0  0
  -17.4053   12.3096   29.6601 C   0  0  0  0  0  0  0  0  0  0  0  0
  -18.9504   13.9684   28.6708 N   0  0  0  0  0  0  0  0  0  0  0  0
  -19.4401   14.6287   27.5955 C   0  0  0  0  0  0  0  0  0  0  0  0
  -20.4093   15.5571   27.6279 N   0  0  0  0  0  0  0  0  0  0  0  0
  -20.4854   15.8972   26.3150 C   0  0  0  0  0  0  0  0  0  0  0  0
  -19.6117   15.2156   25.5365 N   0  0  0  0  0  0  0  0  0  0  0  0
  -18.9704   14.4155   26.3649 N   0  0  0  0  0  0  0  0  0  0  0  0
  -19.1249   10.2506   24.3865 H   0  0  0  0  0  0  0  0  0  0  0  0
  -19.9220   11.8393   24.6727 H   0  0  0  0  0  0  0  0  0  0  0  0
  -18.7867   11.1657   25.9043 H   0  0  0  0  0  0  0  0  0  0  0  0
  -18.0618   12.1107   23.0440 H   0  0  0  0  0  0  0  0  0  0  0  0
  -16.9258   11.2925   24.1472 H   0  0  0  0  0  0  0  0  0  0  0  0
  -17.5434   14.7782   23.2536 H   0  0  0  0  0  0  0  0  0  0  0  0
  -16.4483   15.0922   24.6072 H   0  0  0  0  0  0  0  0  0  0  0  0
  -16.0149   12.9552   22.4291 H   0  0  0  0  0  0  0  0  0  0  0  0
  -14.9597   13.1905   23.8810 H   0  0  0  0  0  0  0  0  0  0  0  0
  -15.1162   14.5015   22.6485 H   0  0  0  0  0  0  0  0  0  0  0  0
  -16.6673   12.0769   27.0561 H   0  0  0  0  0  0  0  0  0  0  0  0
  -17.8143   12.7173   30.6089 H   0  0  0  0  0  0  0  0  0  0  0  0
  -17.6891   11.2397   29.5772 H   0  0  0  0  0  0  0  0  0  0  0  0
  -16.2982   12.3940   29.6864 H   0  0  0  0  0  0  0  0  0  0  0  0
  -21.1705   16.6408   25.9308 H   0  0  0  0  0  0  0  0  0  0  0  0
  1  2  1  0
  2  3  1  0
  3  4  1  0
  4  5  1  0
  3  6  1  0
  6  7  2  0
  7  8  1  0
  8  9  1  0
  8 10  2  0
 10 11  1  0
 11 12  2  0
 12 13  1  0
 13 14  2  0
 14 15  1  0
 15  6  1  0
 15 11  1  0
  1 16  1  0
  1 17  1  0
  1 18  1  0
  2 19  1  0
  2 20  1  0
  4 21  1  0
  4 22  1  0
  5 23  1  0
  5 24  1  0
  5 25  1  0
  7 26  1  0
  9 27  1  0
  9 28  1  0
  9 29  1  0
 13 30  1  0
M  END
>  <CHROM.1>  (1) 
-156.27346101,-45.25863793,67.40319016,0.73470907,0.92648431,-1.72000956

>  <Name>  (1) 
F362

>  <RI>  (1) 
2.85003e+07

>  <Rbt.Current_Directory>  (1) 
/data/out

>  <Rbt.Executable>  (1) 
rbdock ($Id: //depot/dev/client3/rdock/2013.1/src/exe/rbdock.cxx#4 $)

>  <Rbt.Library>  (1) 
libRbt.so (2013.1, Build901 2013/11/27)

>  <Rbt.Parameter_File>  (1) 
/python_libraries/phenodiscovery/docking/templates/RDOCK_TETHER.conf

>  <Rbt.Receptor>  (1) 
/data/out/rdock-opt/grid/rdock-grid.prm

>  <SCORE>  (1) 
26.937

>  <SCORE.INTER>  (1) 
23.0892

>  <SCORE.INTER.CONST>  (1) 
1

>  <SCORE.INTER.POLAR>  (1) 
0

>  <SCORE.INTER.REPUL>  (1) 
0.0546945

>  <SCORE.INTER.ROT>  (1) 
3

>  <SCORE.INTER.VDW>  (1) 
14.4157

>  <SCORE.INTER.norm>  (1) 
1.53928

>  <SCORE.INTRA>  (1) 
3.84775

>  <SCORE.INTRA.DIHEDRAL>  (1) 
5.67697

>  <SCORE.INTRA.DIHEDRAL.0>  (1) 
9.88989

>  <SCORE.INTRA.POLAR>  (1) 
0

>  <SCORE.INTRA.POLAR.0>  (1) 
0

>  <SCORE.INTRA.REPUL>  (1) 
0

>  <SCORE.INTRA.REPUL.0>  (1) 
0

>  <SCORE.INTRA.VDW>  (1) 
1.00926

>  <SCORE.INTRA.VDW.0>  (1) 
-1.13114

>  <SCORE.INTRA.norm>  (1) 
0.256516

>  <SCORE.RESTR>  (1) 
0

>  <SCORE.RESTR.CAVITY>  (1) 
0

>  <SCORE.RESTR.norm>  (1) 
0

>  <SCORE.SYSTEM>  (1) 
0

>  <SCORE.SYSTEM.CONST>  (1) 
0

>  <SCORE.SYSTEM.DIHEDRAL>  (1) 
0

>  <SCORE.SYSTEM.norm>  (1) 
0

>  <SCORE.heavy>  (1) 
15

>  <SCORE.norm>  (1) 
1.7958

>  <TETHERED ATOMS>  (1) 
1,2,3,6,7,10,11,12,13,14

>  <skeledock_score>  (1) 
46

$$$$
