F558
     RDKit          3D

 32 33  0  0  0  0  0  0  0  0999 V2000
  -19.0502   12.5736   35.7203 C   0  0  0  0  0  0  0  0  0  0  0  0
  -19.8452   13.4008   34.8792 O   0  0  0  0  0  0  0  0  0  0  0  0
  -19.5174   13.6543   33.5443 C   0  0  0  0  0  0  0  0  0  0  0  0
  -18.5151   13.0963   33.0185 O   0  0  0  0  0  0  0  0  0  0  0  0
  -20.3086   14.5886   32.7976 N   0  0  0  0  0  0  0  0  0  0  0  0
  -20.1884   14.8030   31.3807 C   0  0  0  0  0  0  0  0  0  0  0  0
  -18.9323   14.8837   30.7535 C   0  0  0  0  0  0  0  0  0  0  0  0
  -18.8438   15.0672   29.3704 C   0  0  0  0  0  0  0  0  0  0  0  0
  -20.0070   15.1571   28.5907 C   0  0  0  0  0  0  0  0  0  0  0  0
  -19.9066   15.3509   27.1007 C   0  0  0  0  0  0  0  0  0  0  0  0
  -19.6874   14.0367   26.3989 C   0  0  0  0  0  0  0  0  0  0  0  0
  -20.7815   13.2676   25.9749 C   0  0  0  0  0  0  0  0  0  0  0  0
  -20.5572   12.0427   25.3418 C   0  0  0  0  0  0  0  0  0  0  0  0
  -19.2872   11.5993   25.1445 N   0  0  0  0  0  0  0  0  0  0  0  0
  -18.2090   12.3223   25.5489 C   0  0  0  0  0  0  0  0  0  0  0  0
  -18.3885   13.5538   26.1810 C   0  0  0  0  0  0  0  0  0  0  0  0
  -21.2607   15.0648   29.2143 C   0  0  0  0  0  0  0  0  0  0  0  0
  -21.3488   14.8772   30.5964 C   0  0  0  0  0  0  0  0  0  0  0  0
  -18.9929   11.5472   35.2999 H   0  0  0  0  0  0  0  0  0  0  0  0
  -19.5136   12.5247   36.7270 H   0  0  0  0  0  0  0  0  0  0  0  0
  -18.0281   12.9980   35.8148 H   0  0  0  0  0  0  0  0  0  0  0  0
  -20.9508   15.2100   33.3394 H   0  0  0  0  0  0  0  0  0  0  0  0
  -18.0195   14.7778   31.3239 H   0  0  0  0  0  0  0  0  0  0  0  0
  -17.8682   15.1279   28.9036 H   0  0  0  0  0  0  0  0  0  0  0  0
  -19.0728   16.0407   26.8453 H   0  0  0  0  0  0  0  0  0  0  0  0
  -20.8391   15.8394   26.7421 H   0  0  0  0  0  0  0  0  0  0  0  0
  -21.7955   13.6124   26.1354 H   0  0  0  0  0  0  0  0  0  0  0  0
  -21.3938   11.4427   25.0097 H   0  0  0  0  0  0  0  0  0  0  0  0
  -17.2112   11.9411   25.3771 H   0  0  0  0  0  0  0  0  0  0  0  0
  -17.5232   14.1224   26.4980 H   0  0  0  0  0  0  0  0  0  0  0  0
  -22.1708   15.1328   28.6312 H   0  0  0  0  0  0  0  0  0  0  0  0
  -22.3243   14.8018   31.0604 H   0  0  0  0  0  0  0  0  0  0  0  0
  1  2  1  0
  2  3  1  0
  3  4  2  0
  3  5  1  0
  5  6  1  0
  6  7  2  0
  7  8  1  0
  8  9  2  0
  9 10  1  0
 10 11  1  0
 11 12  2  0
 12 13  1  0
 13 14  2  0
 14 15  1  0
 15 16  2  0
  9 17  1  0
 17 18  2  0
  6 18  1  0
 11 16  1  0
  1 19  1  0
  1 20  1  0
  1 21  1  0
  5 22  1  0
  7 23  1  0
  8 24  1  0
 10 25  1  0
 10 26  1  0
 12 27  1  0
 13 28  1  0
 15 29  1  0
 16 30  1  0
 17 31  1  0
 18 32  1  0
M  END
>  <CHROM.1>  (1) 
3.18247735,-42.61853109,83.03420617,89.65257045,-1.92409895,0.44943651,-1.75082041

>  <Name>  (1) 
F558

>  <RI>  (1) 
1.22232e+07

>  <Rbt.Current_Directory>  (1) 
/data/out

>  <Rbt.Executable>  (1) 
rbdock ($Id: //depot/dev/client3/rdock/2013.1/src/exe/rbdock.cxx#4 $)

>  <Rbt.Library>  (1) 
libRbt.so (2013.1, Build901 2013/11/27)

>  <Rbt.Parameter_File>  (1) 
/python_libraries/phenodiscovery/docking/templates/RDOCK_TETHER.conf

>  <Rbt.Receptor>  (1) 
/data/out/rdock-opt/grid/rdock-grid.prm

>  <SCORE>  (1) 
1.95953

>  <SCORE.INTER>  (1) 
0.124274

>  <SCORE.INTER.CONST>  (1) 
1

>  <SCORE.INTER.POLAR>  (1) 
0

>  <SCORE.INTER.REPUL>  (1) 
0.0280033

>  <SCORE.INTER.ROT>  (1) 
4

>  <SCORE.INTER.VDW>  (1) 
-9.41574

>  <SCORE.INTER.norm>  (1) 
0.00690412

>  <SCORE.INTRA>  (1) 
1.83525

>  <SCORE.INTRA.DIHEDRAL>  (1) 
3.49495

>  <SCORE.INTRA.DIHEDRAL.0>  (1) 
4.91532

>  <SCORE.INTRA.POLAR>  (1) 
0

>  <SCORE.INTRA.POLAR.0>  (1) 
0

>  <SCORE.INTRA.REPUL>  (1) 
0

>  <SCORE.INTRA.REPUL.0>  (1) 
0

>  <SCORE.INTRA.VDW>  (1) 
0.0877762

>  <SCORE.INTRA.VDW.0>  (1) 
-1.23709

>  <SCORE.INTRA.norm>  (1) 
0.101958

>  <SCORE.RESTR>  (1) 
0

>  <SCORE.RESTR.CAVITY>  (1) 
0

>  <SCORE.RESTR.norm>  (1) 
0

>  <SCORE.SYSTEM>  (1) 
0

>  <SCORE.SYSTEM.CONST>  (1) 
0

>  <SCORE.SYSTEM.DIHEDRAL>  (1) 
0

>  <SCORE.SYSTEM.norm>  (1) 
0

>  <SCORE.heavy>  (1) 
18

>  <SCORE.norm>  (1) 
0.108863

>  <TETHERED ATOMS>  (1) 
6,7,8,9,10,17,18,11,16,15

>  <skeledock_score>  (1) 
38

$$$$
