F488
     RDKit          3D

 38 39  0  0  0  0  0  0  0  0999 V2000
  -14.8974   13.2464   20.9039 C   0  0  0  0  0  0  0  0  0  0  0  0
  -14.5585   12.2473   21.9317 N   0  0  0  0  0  0  0  0  0  0  0  0
  -15.1749   10.9293   21.6706 C   0  0  0  0  0  0  0  0  0  0  0  0
  -16.6801   10.9188   21.9637 C   0  0  0  0  0  0  0  0  0  0  0  0
  -16.9267   11.4424   23.3105 N   0  0  0  0  0  0  0  0  0  0  0  0
  -16.3296   12.7401   23.6443 C   0  0  0  0  0  0  0  0  0  0  0  0
  -14.8316   12.7303   23.3017 C   0  0  0  0  0  0  0  0  0  0  0  0
  -17.7849   10.7344   24.2313 C   0  0  0  0  0  0  0  0  0  0  0  0
  -17.9285    9.4861   24.1191 O   0  0  0  0  0  0  0  0  0  0  0  0
  -18.4844   11.4458   25.3523 C   0  0  0  0  0  0  0  0  0  0  0  0
  -17.9455   12.7557   25.5092 O   0  0  0  0  0  0  0  0  0  0  0  0
  -18.4949   13.7444   26.3369 C   0  0  0  0  0  0  0  0  0  0  0  0
  -19.2175   14.7825   25.7387 C   0  0  0  0  0  0  0  0  0  0  0  0
  -19.7591   15.8102   26.5155 C   0  0  0  0  0  0  0  0  0  0  0  0
  -19.6017   15.8007   27.9091 C   0  0  0  0  0  0  0  0  0  0  0  0
  -20.1478   16.9244   28.7393 C   0  0  0  0  0  0  0  0  0  0  0  0
  -18.8747   14.7642   28.5130 C   0  0  0  0  0  0  0  0  0  0  0  0
  -18.3310   13.7372   27.7354 C   0  0  0  0  0  0  0  0  0  0  0  0
  -14.6145   12.8702   19.8978 H   0  0  0  0  0  0  0  0  0  0  0  0
  -15.9797   13.4908   20.9040 H   0  0  0  0  0  0  0  0  0  0  0  0
  -14.3212   14.1799   21.0786 H   0  0  0  0  0  0  0  0  0  0  0  0
  -14.9988   10.6207   20.6168 H   0  0  0  0  0  0  0  0  0  0  0  0
  -14.6802   10.1677   22.3122 H   0  0  0  0  0  0  0  0  0  0  0  0
  -17.0635    9.8823   21.8502 H   0  0  0  0  0  0  0  0  0  0  0  0
  -17.2160   11.5476   21.2220 H   0  0  0  0  0  0  0  0  0  0  0  0
  -16.4265   12.9647   24.7271 H   0  0  0  0  0  0  0  0  0  0  0  0
  -16.8516   13.5439   23.0838 H   0  0  0  0  0  0  0  0  0  0  0  0
  -14.3060   12.0679   24.0240 H   0  0  0  0  0  0  0  0  0  0  0  0
  -14.4117   13.7503   23.4445 H   0  0  0  0  0  0  0  0  0  0  0  0
  -19.5690   11.5126   25.1218 H   0  0  0  0  0  0  0  0  0  0  0  0
  -18.3323   10.8759   26.2943 H   0  0  0  0  0  0  0  0  0  0  0  0
  -19.3467   14.8007   24.6638 H   0  0  0  0  0  0  0  0  0  0  0  0
  -20.3006   16.6128   26.0301 H   0  0  0  0  0  0  0  0  0  0  0  0
  -19.3847   17.7261   28.8226 H   0  0  0  0  0  0  0  0  0  0  0  0
  -21.0656   17.3444   28.2753 H   0  0  0  0  0  0  0  0  0  0  0  0
  -20.4109   16.5672   29.7578 H   0  0  0  0  0  0  0  0  0  0  0  0
  -18.7275   14.7513   29.5859 H   0  0  0  0  0  0  0  0  0  0  0  0
  -17.7787   12.9492   28.2290 H   0  0  0  0  0  0  0  0  0  0  0  0
  1  2  1  0
  2  3  1  0
  3  4  1  0
  4  5  1  0
  5  6  1  0
  6  7  1  0
  5  8  1  0
  8  9  2  0
  8 10  1  0
 10 11  1  0
 11 12  1  0
 12 13  2  0
 13 14  1  0
 14 15  2  0
 15 16  1  0
 15 17  1  0
 17 18  2  0
  7  2  1  0
 12 18  1  0
  1 19  1  0
  1 20  1  0
  1 21  1  0
  3 22  1  0
  3 23  1  0
  4 24  1  0
  4 25  1  0
  6 26  1  0
  6 27  1  0
  7 28  1  0
  7 29  1  0
 10 30  1  0
 10 31  1  0
 13 32  1  0
 14 33  1  0
 16 34  1  0
 16 35  1  0
 16 36  1  0
 17 37  1  0
 18 38  1  0
M  END
>  <CHROM.1>  (1) 
-12.53403686,170.69847038,-103.69352886,0.91724025,1.11906039,-1.93548387

>  <Name>  (1) 
F488

>  <RI>  (1) 
3.23956e+07

>  <Rbt.Current_Directory>  (1) 
/data/out

>  <Rbt.Executable>  (1) 
rbdock ($Id: //depot/dev/client3/rdock/2013.1/src/exe/rbdock.cxx#4 $)

>  <Rbt.Library>  (1) 
libRbt.so (2013.1, Build901 2013/11/27)

>  <Rbt.Parameter_File>  (1) 
/python_libraries/phenodiscovery/docking/templates/RDOCK_TETHER.conf

>  <Rbt.Receptor>  (1) 
/data/out/rdock-opt/grid/rdock-grid.prm

>  <SCORE>  (1) 
29.1335

>  <SCORE.INTER>  (1) 
17.4524

>  <SCORE.INTER.CONST>  (1) 
1

>  <SCORE.INTER.POLAR>  (1) 
0

>  <SCORE.INTER.REPUL>  (1) 
0.916515

>  <SCORE.INTER.ROT>  (1) 
3

>  <SCORE.INTER.VDW>  (1) 
4.46985

>  <SCORE.INTER.norm>  (1) 
0.969579

>  <SCORE.INTRA>  (1) 
11.6811

>  <SCORE.INTRA.DIHEDRAL>  (1) 
4.92735

>  <SCORE.INTRA.DIHEDRAL.0>  (1) 
1.41619

>  <SCORE.INTRA.POLAR>  (1) 
0

>  <SCORE.INTRA.POLAR.0>  (1) 
0

>  <SCORE.INTRA.REPUL>  (1) 
0

>  <SCORE.INTRA.REPUL.0>  (1) 
0

>  <SCORE.INTRA.VDW>  (1) 
9.21742

>  <SCORE.INTRA.VDW.0>  (1) 
-0.12199

>  <SCORE.INTRA.norm>  (1) 
0.648949

>  <SCORE.RESTR>  (1) 
0

>  <SCORE.RESTR.CAVITY>  (1) 
0

>  <SCORE.RESTR.norm>  (1) 
0

>  <SCORE.SYSTEM>  (1) 
0

>  <SCORE.SYSTEM.CONST>  (1) 
0

>  <SCORE.SYSTEM.DIHEDRAL>  (1) 
0

>  <SCORE.SYSTEM.norm>  (1) 
0

>  <SCORE.heavy>  (1) 
18

>  <SCORE.norm>  (1) 
1.61853

>  <TETHERED ATOMS>  (1) 
12,13,14,15,17,18,8,10,11

>  <skeledock_score>  (1) 
50

$$$$
