F366
     RDKit          3D

 22 22  0  0  0  0  0  0  0  0999 V2000
  -23.7024   17.0955   29.2766 C   0  0  0  0  0  0  0  0  0  0  0  0
  -23.2737   15.6447   29.4601 C   0  0  0  0  0  0  0  0  0  0  0  0
  -21.9262   15.4395   28.9361 N   0  0  0  0  0  0  0  0  0  0  0  0
  -21.3770   14.2547   28.6083 C   0  0  0  0  0  0  0  0  0  0  0  0
  -20.0972   14.4938   28.1575 C   0  0  0  0  0  0  0  0  0  0  0  0
  -19.0920   13.4816   27.7007 C   0  0  0  0  0  0  0  0  0  0  0  0
  -18.0807   13.1841   28.8037 C   0  0  0  0  0  0  0  0  0  0  0  0
  -17.4134   14.3638   29.1553 O   0  0  0  0  0  0  0  0  0  0  0  0
  -19.9227   15.8613   28.2566 C   0  0  0  0  0  0  0  0  0  0  0  0
  -21.0546   16.4168   28.7329 N   0  0  0  0  0  0  0  0  0  0  0  0
  -24.7363   17.2306   29.6585 H   0  0  0  0  0  0  0  0  0  0  0  0
  -23.6789   17.3657   28.1994 H   0  0  0  0  0  0  0  0  0  0  0  0
  -23.0231   17.7711   29.8385 H   0  0  0  0  0  0  0  0  0  0  0  0
  -23.2921   15.3843   30.5401 H   0  0  0  0  0  0  0  0  0  0  0  0
  -23.9968   14.9846   28.9322 H   0  0  0  0  0  0  0  0  0  0  0  0
  -21.8691   13.2937   28.6887 H   0  0  0  0  0  0  0  0  0  0  0  0
  -19.6139   12.5436   27.4118 H   0  0  0  0  0  0  0  0  0  0  0  0
  -18.5614   13.8719   26.8054 H   0  0  0  0  0  0  0  0  0  0  0  0
  -18.6091   12.7744   29.6941 H   0  0  0  0  0  0  0  0  0  0  0  0
  -17.3440   12.4324   28.4398 H   0  0  0  0  0  0  0  0  0  0  0  0
  -16.9515   14.6737   28.3334 H   0  0  0  0  0  0  0  0  0  0  0  0
  -19.0298   16.4161   28.0012 H   0  0  0  0  0  0  0  0  0  0  0  0
  1  2  1  0
  2  3  1  0
  3  4  1  0
  4  5  2  0
  5  6  1  0
  6  7  1  0
  7  8  1  0
  5  9  1  0
  9 10  2  0
 10  3  1  0
  1 11  1  0
  1 12  1  0
  1 13  1  0
  2 14  1  0
  2 15  1  0
  4 16  1  0
  6 17  1  0
  6 18  1  0
  7 19  1  0
  7 20  1  0
  8 21  1  0
  9 22  1  0
M  END
>  <CHROM.1>  (1) 
-161.18099107,-100.03445109,-59.68677954,-60.70147803,0.08650006,-0.58359414
2.06079007

>  <Name>  (1) 
F366

>  <RI>  (1) 
1.58481e+07

>  <Rbt.Current_Directory>  (1) 
/data/out

>  <Rbt.Executable>  (1) 
rbdock ($Id: //depot/dev/client3/rdock/2013.1/src/exe/rbdock.cxx#4 $)

>  <Rbt.Library>  (1) 
libRbt.so (2013.1, Build901 2013/11/27)

>  <Rbt.Parameter_File>  (1) 
/python_libraries/phenodiscovery/docking/templates/RDOCK_TETHER.conf

>  <Rbt.Receptor>  (1) 
/data/out/rdock-opt/grid/rdock-grid.prm

>  <SCORE>  (1) 
-0.537327

>  <SCORE.INTER>  (1) 
-0.457791

>  <SCORE.INTER.CONST>  (1) 
1

>  <SCORE.INTER.POLAR>  (1) 
-0.00725387

>  <SCORE.INTER.REPUL>  (1) 
0

>  <SCORE.INTER.ROT>  (1) 
3

>  <SCORE.INTER.VDW>  (1) 
-8.83313

>  <SCORE.INTER.norm>  (1) 
-0.0457791

>  <SCORE.INTRA>  (1) 
-0.0795356

>  <SCORE.INTRA.DIHEDRAL>  (1) 
0.0640023

>  <SCORE.INTRA.DIHEDRAL.0>  (1) 
3.80476

>  <SCORE.INTRA.POLAR>  (1) 
0

>  <SCORE.INTRA.POLAR.0>  (1) 
0

>  <SCORE.INTRA.REPUL>  (1) 
0

>  <SCORE.INTRA.REPUL.0>  (1) 
0

>  <SCORE.INTRA.VDW>  (1) 
-0.111537

>  <SCORE.INTRA.VDW.0>  (1) 
-1.05955

>  <SCORE.INTRA.norm>  (1) 
-0.00795356

>  <SCORE.RESTR>  (1) 
0

>  <SCORE.RESTR.CAVITY>  (1) 
0

>  <SCORE.RESTR.norm>  (1) 
0

>  <SCORE.SYSTEM>  (1) 
0

>  <SCORE.SYSTEM.CONST>  (1) 
0

>  <SCORE.SYSTEM.DIHEDRAL>  (1) 
0

>  <SCORE.SYSTEM.norm>  (1) 
0

>  <SCORE.heavy>  (1) 
10

>  <SCORE.norm>  (1) 
-0.0537327

>  <TETHERED ATOMS>  (1) 
4,5,6,1,3,2,7

>  <skeledock_score>  (1) 
25

$$$$
