F199
     RDKit          3D

 25 26  0  0  0  0  0  0  0  0999 V2000
  -16.9723   13.4552   23.7653 C   0  0  0  0  0  0  0  0  0  0  0  0
  -17.9080   13.5901   24.9192 C   0  0  0  0  0  0  0  0  0  0  0  0
  -19.2451   13.2605   24.9346 C   0  0  0  0  0  0  0  0  0  0  0  0
  -19.6360   13.5724   26.2222 C   0  0  0  0  0  0  0  0  0  0  0  0
  -18.5827   14.0492   26.9145 N   0  0  0  0  0  0  0  0  0  0  0  0
  -17.5665   14.0483   26.1006 O   0  0  0  0  0  0  0  0  0  0  0  0
  -20.9683   13.3527   26.8003 C   0  0  0  0  0  0  0  0  0  0  0  0
  -21.9762   13.2977   26.0460 O   0  0  0  0  0  0  0  0  0  0  0  0
  -21.1244   13.2280   28.2173 N   0  0  0  0  0  0  0  0  0  0  0  0
  -22.0340   14.0484   28.9571 C   0  0  0  0  0  0  0  0  0  0  0  0
  -22.4002   13.9198   30.2855 C   0  0  0  0  0  0  0  0  0  0  0  0
  -23.4360   14.7466   30.5283 N   0  0  0  0  0  0  0  0  0  0  0  0
  -23.7129   15.3872   29.4021 N   0  0  0  0  0  0  0  0  0  0  0  0
  -24.8607   16.2660   29.2362 C   0  0  0  0  0  0  0  0  0  0  0  0
  -22.8906   14.9792   28.4181 C   0  0  0  0  0  0  0  0  0  0  0  0
  -16.5576   14.4517   23.5077 H   0  0  0  0  0  0  0  0  0  0  0  0
  -17.5010   13.0426   22.8801 H   0  0  0  0  0  0  0  0  0  0  0  0
  -16.1413   12.7735   24.0413 H   0  0  0  0  0  0  0  0  0  0  0  0
  -19.8358   12.8388   24.1319 H   0  0  0  0  0  0  0  0  0  0  0  0
  -20.3973   12.7025   28.7528 H   0  0  0  0  0  0  0  0  0  0  0  0
  -21.9850   13.2397   31.0161 H   0  0  0  0  0  0  0  0  0  0  0  0
  -25.7317   15.6766   28.8808 H   0  0  0  0  0  0  0  0  0  0  0  0
  -25.1150   16.7450   30.2053 H   0  0  0  0  0  0  0  0  0  0  0  0
  -24.6290   17.0615   28.4963 H   0  0  0  0  0  0  0  0  0  0  0  0
  -22.9554   15.2846   27.3814 H   0  0  0  0  0  0  0  0  0  0  0  0
  1  2  1  0
  2  3  2  0
  3  4  1  0
  4  5  2  0
  5  6  1  0
  4  7  1  0
  7  8  2  0
  7  9  1  0
  9 10  1  0
 10 11  1  0
 11 12  2  0
 12 13  1  0
 13 14  1  0
 13 15  1  0
  6  2  1  0
 10 15  2  0
  1 16  1  0
  1 17  1  0
  1 18  1  0
  3 19  1  0
  9 20  1  0
 11 21  1  0
 14 22  1  0
 14 23  1  0
 14 24  1  0
 15 25  1  0
M  END
>  <CHROM.1>  (1) 
-25.20486356,171.23376744,0.56175712,0.26151975,-1.63197831

>  <Name>  (1) 
F199

>  <RI>  (1) 
2.98145e+07

>  <Rbt.Current_Directory>  (1) 
/data/out

>  <Rbt.Executable>  (1) 
rbdock ($Id: //depot/dev/client3/rdock/2013.1/src/exe/rbdock.cxx#4 $)

>  <Rbt.Library>  (1) 
libRbt.so (2013.1, Build901 2013/11/27)

>  <Rbt.Parameter_File>  (1) 
/python_libraries/phenodiscovery/docking/templates/RDOCK_TETHER.conf

>  <Rbt.Receptor>  (1) 
/data/out/rdock-opt/grid/rdock-grid.prm

>  <SCORE>  (1) 
1.24739

>  <SCORE.INTER>  (1) 
-0.432272

>  <SCORE.INTER.CONST>  (1) 
1

>  <SCORE.INTER.POLAR>  (1) 
0

>  <SCORE.INTER.REPUL>  (1) 
0

>  <SCORE.INTER.ROT>  (1) 
2

>  <SCORE.INTER.VDW>  (1) 
-7.83227

>  <SCORE.INTER.norm>  (1) 
-0.0288181

>  <SCORE.INTRA>  (1) 
1.67966

>  <SCORE.INTRA.DIHEDRAL>  (1) 
2.91821

>  <SCORE.INTRA.DIHEDRAL.0>  (1) 
1.84505

>  <SCORE.INTRA.POLAR>  (1) 
0

>  <SCORE.INTRA.POLAR.0>  (1) 
0

>  <SCORE.INTRA.REPUL>  (1) 
0

>  <SCORE.INTRA.REPUL.0>  (1) 
0

>  <SCORE.INTRA.VDW>  (1) 
0.220557

>  <SCORE.INTRA.VDW.0>  (1) 
-1.24509

>  <SCORE.INTRA.norm>  (1) 
0.111977

>  <SCORE.RESTR>  (1) 
0

>  <SCORE.RESTR.CAVITY>  (1) 
0

>  <SCORE.RESTR.norm>  (1) 
0

>  <SCORE.SYSTEM>  (1) 
0

>  <SCORE.SYSTEM.CONST>  (1) 
0

>  <SCORE.SYSTEM.DIHEDRAL>  (1) 
0

>  <SCORE.SYSTEM.norm>  (1) 
0

>  <SCORE.heavy>  (1) 
15

>  <SCORE.norm>  (1) 
0.0831593

>  <TETHERED ATOMS>  (1) 
2,3,4,7,5,9,6,10,15,13,14

>  <skeledock_score>  (1) 
52

$$$$
