F274
     RDKit          3D

 26 27  0  0  0  0  0  0  0  0999 V2000
  -23.1511   17.2629   28.2945 C   0  0  0  0  0  0  0  0  0  0  0  0
  -22.6290   15.8856   28.5332 C   0  0  0  0  0  0  0  0  0  0  0  0
  -21.6529   15.2471   27.7978 C   0  0  0  0  0  0  0  0  0  0  0  0
  -21.5455   14.0189   28.4137 C   0  0  0  0  0  0  0  0  0  0  0  0
  -20.6301   12.9035   28.0148 C   0  0  0  0  0  0  0  0  0  0  0  0
  -19.7768   13.3144   26.8949 N   0  0  0  0  0  0  0  0  0  0  0  0
  -18.9589   14.3579   27.0691 N   0  0  0  0  0  0  0  0  0  0  0  0
  -18.1446   14.8140   26.0803 C   0  0  0  0  0  0  0  0  0  0  0  0
  -17.2369   15.9748   26.3334 C   0  0  0  0  0  0  0  0  0  0  0  0
  -18.1451   14.1679   24.8437 C   0  0  0  0  0  0  0  0  0  0  0  0
  -18.9919   13.0820   24.6478 C   0  0  0  0  0  0  0  0  0  0  0  0
  -19.8193   12.6620   25.6895 C   0  0  0  0  0  0  0  0  0  0  0  0
  -20.5995   11.6876   25.5075 O   0  0  0  0  0  0  0  0  0  0  0  0
  -22.3904   13.9671   29.4174 O   0  0  0  0  0  0  0  0  0  0  0  0
  -23.0623   15.0773   29.5202 N   0  0  0  0  0  0  0  0  0  0  0  0
  -22.6410   17.7290   27.4250 H   0  0  0  0  0  0  0  0  0  0  0  0
  -24.2411   17.2160   28.0910 H   0  0  0  0  0  0  0  0  0  0  0  0
  -22.9738   17.8876   29.1946 H   0  0  0  0  0  0  0  0  0  0  0  0
  -21.1076   15.6177   26.9396 H   0  0  0  0  0  0  0  0  0  0  0  0
  -21.2538   12.0304   27.7236 H   0  0  0  0  0  0  0  0  0  0  0  0
  -19.9983   12.5888   28.8742 H   0  0  0  0  0  0  0  0  0  0  0  0
  -17.3687   16.7389   25.5384 H   0  0  0  0  0  0  0  0  0  0  0  0
  -16.1820   15.6289   26.3379 H   0  0  0  0  0  0  0  0  0  0  0  0
  -17.4660   16.4414   27.3150 H   0  0  0  0  0  0  0  0  0  0  0  0
  -17.4986   14.5030   24.0420 H   0  0  0  0  0  0  0  0  0  0  0  0
  -19.0084   12.5744   23.6910 H   0  0  0  0  0  0  0  0  0  0  0  0
  1  2  1  0
  2  3  1  0
  3  4  2  0
  4  5  1  0
  5  6  1  0
  6  7  1  0
  7  8  2  0
  8  9  1  0
  8 10  1  0
 10 11  2  0
 11 12  1  0
 12 13  2  0
  4 14  1  0
 14 15  1  0
  2 15  2  0
 12  6  1  0
  1 16  1  0
  1 17  1  0
  1 18  1  0
  3 19  1  0
  5 20  1  0
  5 21  1  0
  9 22  1  0
  9 23  1  0
  9 24  1  0
 10 25  1  0
 11 26  1  0
M  END
>  <CHROM.1>  (1) 
3.23417820,60.27866458,2.99868240,0.78389095,-0.27085785

>  <Name>  (1) 
F274

>  <RI>  (1) 
3.50779e+07

>  <Rbt.Current_Directory>  (1) 
/data/out

>  <Rbt.Executable>  (1) 
rbdock ($Id: //depot/dev/client3/rdock/2013.1/src/exe/rbdock.cxx#4 $)

>  <Rbt.Library>  (1) 
libRbt.so (2013.1, Build901 2013/11/27)

>  <Rbt.Parameter_File>  (1) 
/python_libraries/phenodiscovery/docking/templates/RDOCK_TETHER.conf

>  <Rbt.Receptor>  (1) 
/data/out/rdock-opt/grid/rdock-grid.prm

>  <SCORE>  (1) 
1.74031

>  <SCORE.INTER>  (1) 
0.477699

>  <SCORE.INTER.CONST>  (1) 
1

>  <SCORE.INTER.POLAR>  (1) 
-0.584368

>  <SCORE.INTER.REPUL>  (1) 
0

>  <SCORE.INTER.ROT>  (1) 
2

>  <SCORE.INTER.VDW>  (1) 
-4.93545

>  <SCORE.INTER.norm>  (1) 
0.0318466

>  <SCORE.INTRA>  (1) 
1.26262

>  <SCORE.INTRA.DIHEDRAL>  (1) 
0.0315059

>  <SCORE.INTRA.DIHEDRAL.0>  (1) 
2.62906

>  <SCORE.INTRA.POLAR>  (1) 
0

>  <SCORE.INTRA.POLAR.0>  (1) 
0

>  <SCORE.INTRA.REPUL>  (1) 
0

>  <SCORE.INTRA.REPUL.0>  (1) 
0

>  <SCORE.INTRA.VDW>  (1) 
1.24686

>  <SCORE.INTRA.VDW.0>  (1) 
-1.31007

>  <SCORE.INTRA.norm>  (1) 
0.0841744

>  <SCORE.RESTR>  (1) 
0

>  <SCORE.RESTR.CAVITY>  (1) 
0

>  <SCORE.RESTR.norm>  (1) 
0

>  <SCORE.SYSTEM>  (1) 
0

>  <SCORE.SYSTEM.CONST>  (1) 
0

>  <SCORE.SYSTEM.DIHEDRAL>  (1) 
0

>  <SCORE.SYSTEM.norm>  (1) 
0

>  <SCORE.heavy>  (1) 
15

>  <SCORE.norm>  (1) 
0.116021

>  <TETHERED ATOMS>  (1) 
5,8,4,12,10,11,2,14,1

>  <skeledock_score>  (1) 
48

$$$$
