


 12 12  0  0  0  0  0  0  0  0999 V2000
  -21.3408   17.8246   25.2255 C   0  0  0  0  0  0  0  0  0  0  0  0
  -20.2168   17.7889   26.2481 C   0  0  0  0  0  0  0  0  0  0  0  0
  -18.8468   17.7164   25.8101 C   0  0  0  0  0  0  0  0  0  0  0  0
  -17.7818   17.6826   26.7790 C   0  0  0  0  0  0  0  0  0  0  0  0
  -16.4117   17.6101   26.3409 C   0  0  0  0  0  0  0  0  0  0  0  0
  -16.1004   17.5706   24.9049 N   0  0  0  0  0  0  0  0  0  0  0  0
  -15.3467   17.5763   27.3099 C   0  0  0  0  0  0  0  0  0  0  0  0
  -14.1378   17.5123   26.9233 O   0  0  0  0  0  0  0  0  0  0  0  0
  -20.5118   17.8264   27.6088 N   0  0  0  0  0  0  0  0  0  0  0  0
  -21.9103   17.9005   28.0560 C   0  0  0  0  0  0  0  0  0  0  0  0
  -16.8284   17.5936   24.2425 H   0  0  0  0  0  0  0  0  0  0  0  0
  -15.1639   17.5209   24.6053 H   0  0  0  0  0  0  0  0  0  0  0  0
  1  2  1  0  0  0
  2  3  2  0  0  0
  2  9  1  0  0  0
  3  4  1  0  0  0
  4  5  2  0  0  0
  5  6  1  0  0  0
  5  7  1  0  0  0
  6 11  1  0  0  0
  6 12  1  0  0  0
  7  8  2  0  0  0
  7  9  1  0  0  0
  9 10  1  0  0  0
M  END
> <minimizedAffinity>
0.02661

> <CNNscore>
0.9725692272

> <CNNaffinity>
6.2526187897

$$$$
