


 18 19  0  0  0  0  0  0  0  0999 V2000
  -15.7293   11.4856   21.4836 C   0  0  0  0  0  0  0  0  0  0  0  0
  -15.9070   11.7951   22.9097 N   0  0  0  0  0  0  0  0  0  0  0  0
  -15.8189   13.2486   23.1103 C   0  0  0  0  0  0  0  0  0  0  0  0
  -16.0026   13.5687   24.5848 C   0  0  0  0  0  0  0  0  0  0  0  0
  -15.9147   15.0223   24.7854 N   0  0  0  0  0  0  0  0  0  0  0  0
  -15.6805   15.9098   23.6372 C   0  0  0  0  0  0  0  0  0  0  0  0
  -14.8552   11.1281   23.6905 C   0  0  0  0  0  0  0  0  0  0  0  0
  -16.0608   15.5882   26.1341 C   0  0  0  0  0  0  0  0  0  0  0  0
  -16.2632   14.8209   27.1268 O   0  0  0  0  0  0  0  0  0  0  0  0
  -15.9698   17.0913   26.3415 C   0  0  0  0  0  0  0  0  0  0  0  0
  -17.1079   17.7180   25.7685 O   0  0  0  0  0  0  0  0  0  0  0  0
  -18.3357   17.7486   26.4812 C   0  0  0  0  0  0  0  0  0  0  0  0
  -19.5837   17.7954   25.7639 C   0  0  0  0  0  0  0  0  0  0  0  0
  -20.8290   17.8266   26.4868 C   0  0  0  0  0  0  0  0  0  0  0  0
  -22.0770   17.8734   25.7696 C   0  0  0  0  0  0  0  0  0  0  0  0
  -22.0799   17.8899   24.2496 C   0  0  0  0  0  0  0  0  0  0  0  0
  -23.3223   17.9045   26.4923 C   0  0  0  0  0  0  0  0  0  0  0  0
  -18.3330   17.7330   27.9214 C   0  0  0  0  0  0  0  0  0  0  0  0
  1  2  1  0  0  0
  2  3  1  0  0  0
  2  7  1  0  0  0
  3  4  1  0  0  0
  4  5  1  0  0  0
  5  6  1  0  0  0
  5  8  1  0  0  0
  6  7  1  0  0  0
  8  9  2  0  0  0
  8 10  1  0  0  0
 10 11  1  0  0  0
 11 12  1  0  0  0
 12 13  1  0  0  0
 12 18  2  0  0  0
 13 14  2  0  0  0
 14 15  1  0  0  0
 15 16  1  0  0  0
 15 17  2  0  0  0
 17 18  1  0  0  0
M  END
> <minimizedAffinity>
0.16546

> <CNNscore>
0.8020064235

> <CNNaffinity>
8.8413400650

$$$$
