


 12 12  0  0  0  0  0  0  0  0999 V2000
  -16.8334   13.7077   22.0710 C   0  0  0  0  0  0  0  0  0  0  0  0
  -17.0454   14.1519   23.4562 N   0  0  0  0  0  0  0  0  0  0  0  0
  -18.3543   14.6804   23.8664 C   0  0  0  0  0  0  0  0  0  0  0  0
  -18.4286   15.7746   24.7999 C   0  0  0  0  0  0  0  0  0  0  0  0
  -19.7110   16.2924   25.2018 C   0  0  0  0  0  0  0  0  0  0  0  0
  -19.7853   17.3866   26.1353 C   0  0  0  0  0  0  0  0  0  0  0  0
  -21.0676   17.9045   26.5372 C   0  0  0  0  0  0  0  0  0  0  0  0
  -19.5227   14.1230   23.3523 N   0  0  0  0  0  0  0  0  0  0  0  0
  -15.9485   14.0674   24.4311 C   0  0  0  0  0  0  0  0  0  0  0  0
  -16.0587   15.2178   25.4186 C   0  0  0  0  0  0  0  0  0  0  0  0
  -14.8780   16.0049   25.3620 O   0  0  0  0  0  0  0  0  0  0  0  0
  -14.1119   15.4554   25.5899 H   0  0  0  0  0  0  0  0  0  0  0  0
  1  2  1  0  0  0
  2  9  1  0  0  0
  2  3  1  0  0  0
  9 10  1  0  0  0
 10 11  1  0  0  0
 11 12  1  0  0  0
  3  4  1  0  0  0
  3  8  2  0  0  0
  4  5  2  0  0  0
  5  6  1  0  0  0
  6  7  2  0  0  0
  7  8  1  0  0  0
M  END
> <minimizedAffinity>
0.05628

> <CNNscore>
0.8162564039

> <CNNaffinity>
6.1425514221

$$$$
