


 17 18  0  0  0  0  0  0  0  0999 V2000
  -18.7696   17.2487   25.2926 N   0  0  0  0  0  0  0  0  0  0  0  0
  -18.0699   17.8945   25.0422 H   0  0  0  0  0  0  0  0  0  0  0  0
  -19.4437   17.3631   26.5938 C   0  0  0  0  0  0  0  0  0  0  0  0
  -20.8743   17.5187   26.6525 C   0  0  0  0  0  0  0  0  0  0  0  0
  -21.5348   17.6308   27.9274 C   0  0  0  0  0  0  0  0  0  0  0  0
  -22.9654   17.7862   27.9861 C   0  0  0  0  0  0  0  0  0  0  0  0
  -23.6259   17.8984   29.2610 C   0  0  0  0  0  0  0  0  0  0  0  0
  -18.6736   17.3197   27.8101 C   0  0  0  0  0  0  0  0  0  0  0  0
  -17.3525   17.1762   27.7560 F   0  0  0  0  0  0  0  0  0  0  0  0
  -19.1404   16.1702   24.3650 C   0  0  0  0  0  0  0  0  0  0  0  0
  -19.4549   13.6832   22.7908 C   0  0  0  0  0  0  0  0  0  0  0  0
  -18.1092   14.0267   23.4083 C   0  0  0  0  0  0  0  0  0  0  0  0
  -17.0240   13.1712   23.2333 N   0  0  0  0  0  0  0  0  0  0  0  0
  -15.8327   13.4753   23.7799 N   0  0  0  0  0  0  0  0  0  0  0  0
  -14.7475   12.6199   23.6050 C   0  0  0  0  0  0  0  0  0  0  0  0
  -17.9561   15.2367   24.1742 C   0  0  0  0  0  0  0  0  0  0  0  0
  -15.7281   14.3024   24.3035 H   0  0  0  0  0  0  0  0  0  0  0  0
 11 12  1  0  0  0
 12 13  2  0  0  0
 12 16  1  0  0  0
 13 14  1  0  0  0
 14 15  1  0  0  0
 14 17  1  0  0  0
 15 16  2  0  0  0
 16 10  1  0  0  0
 10  1  1  0  0  0
  1  3  1  0  0  0
  1  2  1  0  0  0
  3  4  1  0  0  0
  3  8  2  0  0  0
  4  5  2  0  0  0
  5  6  1  0  0  0
  6  7  2  0  0  0
  7  8  1  0  0  0
  8  9  1  0  0  0
M  END
> <minimizedAffinity>
0.19107

> <CNNscore>
0.7856938243

> <CNNaffinity>
6.4383893013

$$$$
