


 18 20  0  0  0  0  0  0  0  0999 V2000
  -17.0958   11.9803   22.6585 C   0  0  0  0  0  0  0  0  0  0  0  0
  -17.3725   13.2055   23.3631 C   0  0  0  0  0  0  0  0  0  0  0  0
  -16.3838   13.7667   24.2475 C   0  0  0  0  0  0  0  0  0  0  0  0
  -16.6605   14.9919   24.9521 C   0  0  0  0  0  0  0  0  0  0  0  0
  -15.7044   15.5345   25.8073 N   0  0  0  0  0  0  0  0  0  0  0  0
  -15.9719   16.7195   26.4887 C   0  0  0  0  0  0  0  0  0  0  0  0
  -14.7948   17.3877   27.5416 S   0  0  0  0  0  0  0  0  0  0  0  0
  -17.9258   15.6560   24.7723 C   0  0  0  0  0  0  0  0  0  0  0  0
  -15.8305   11.3162   22.8383 C   0  0  0  0  0  0  0  0  0  0  0  0
  -17.2634   17.3974   26.3053 N   0  0  0  0  0  0  0  0  0  0  0  0
  -18.4105   17.0346   27.1500 C   0  0  0  0  0  0  0  0  0  0  0  0
  -18.2857   16.1349   28.0389 O   0  0  0  0  0  0  0  0  0  0  0  0
  -17.3601   18.0943   25.6167 H   0  0  0  0  0  0  0  0  0  0  0  0
  -19.7459   17.7354   26.9603 C   0  0  0  0  0  0  0  0  0  0  0  0
  -20.5801   17.5862   28.2221 C   0  0  0  0  0  0  0  0  0  0  0  0
  -20.4841   17.1103   25.7879 C   0  0  0  0  0  0  0  0  0  0  0  0
  -19.1947   12.2014   21.3957 C   0  0  0  0  0  0  0  0  0  0  0  0
  -18.0705   11.4271   21.7866 O   0  0  0  0  0  0  0  0  0  0  0  0
 17 18  1  0  0  0
 18  1  1  0  0  0
  1  2  1  0  0  0
  1  9  2  0  0  0
  2  3  2  0  0  0
  3  4  1  0  0  0
  4  5  1  0  0  0
  4  8  2  0  0  0
  5  6  2  0  0  0
  6 10  1  0  0  0
  6  7  1  0  0  0
 10 11  1  0  0  0
 10 13  1  0  0  0
 11 12  2  0  0  0
 11 14  1  0  0  0
 14 15  1  0  0  0
 14 16  1  0  0  0
 15 16  1  0  0  0
  7  8  1  0  0  0
  8  9  1  0  0  0
M  END
> <minimizedAffinity>
1.42610

> <CNNscore>
0.0002929044

> <CNNaffinity>
4.3107800484

$$$$
