


 12 13  0  0  0  0  0  0  0  0999 V2000
  -23.1784   17.6445   28.2970 O   0  0  0  0  0  0  0  0  0  0  0  0
  -22.1871   17.7012   27.5037 C   0  0  0  0  0  0  0  0  0  0  0  0
  -20.7706   17.6800   28.0546 C   0  0  0  0  0  0  0  0  0  0  0  0
  -19.7788   17.7582   26.9055 C   0  0  0  0  0  0  0  0  0  0  0  0
  -18.3638   17.7542   27.1740 C   0  0  0  0  0  0  0  0  0  0  0  0
  -17.4241   17.8283   26.0851 C   0  0  0  0  0  0  0  0  0  0  0  0
  -16.0091   17.8243   26.3535 C   0  0  0  0  0  0  0  0  0  0  0  0
  -15.3625   17.7178   28.2007 Br  0  0  0  0  0  0  0  0  0  0  0  0
  -15.0694   17.8984   25.2647 C   0  0  0  0  0  0  0  0  0  0  0  0
  -20.2540   17.8365   25.5482 C   0  0  0  0  0  0  0  0  0  0  0  0
  -22.4104   17.7872   26.0533 N   0  0  0  0  0  0  0  0  0  0  0  0
  -23.0644   17.8262   25.3184 H   0  0  0  0  0  0  0  0  0  0  0  0
  1  2  2  0  0  0
  2  3  1  0  0  0
  2 11  1  0  0  0
  3  4  1  0  0  0
  4  5  2  0  0  0
  4 10  1  0  0  0
  5  6  1  0  0  0
  5 11  1  0  0  0
  6  7  2  0  0  0
  7  8  1  0  0  0
  7  9  1  0  0  0
  9 10  2  0  0  0
 11 12  1  0  0  0
M  END
> <minimizedAffinity>
0.23224

> <CNNscore>
0.7060761452

> <CNNaffinity>
5.9922776222

$$$$
