


 15 16  0  0  0  0  0  0  0  0999 V2000
  -18.9066   15.5103   23.9060 C   0  0  0  0  0  0  0  0  0  0  0  0
  -17.7421   14.6918   24.1261 C   0  0  0  0  0  0  0  0  0  0  0  0
  -17.7849   13.2835   23.8276 C   0  0  0  0  0  0  0  0  0  0  0  0
  -19.0589   12.6610   23.2803 C   0  0  0  0  0  0  0  0  0  0  0  0
  -16.6587   12.4921   24.0404 N   0  0  0  0  0  0  0  0  0  0  0  0
  -16.7001   11.1301   23.7517 C   0  0  0  0  0  0  0  0  0  0  0  0
  -15.5738   10.3386   23.9645 N   0  0  0  0  0  0  0  0  0  0  0  0
  -15.6152    8.9767   23.6758 C   0  0  0  0  0  0  0  0  0  0  0  0
  -14.4890    8.1852   23.8886 N   0  0  0  0  0  0  0  0  0  0  0  0
  -17.8675   10.5596   23.2502 N   0  0  0  0  0  0  0  0  0  0  0  0
  -18.8629   16.9476   24.2108 N   0  0  0  0  0  0  0  0  0  0  0  0
  -21.2949   16.8613   24.4076 C   0  0  0  0  0  0  0  0  0  0  0  0
  -20.0918   17.7513   24.1413 C   0  0  0  0  0  0  0  0  0  0  0  0
  -17.5904   17.5814   24.5849 C   0  0  0  0  0  0  0  0  0  0  0  0
  -17.5181   17.7189   26.0969 C   0  0  0  0  0  0  0  0  0  0  0  0
 12 13  1  0  0  0
 13 11  1  0  0  0
 11 14  1  0  0  0
 11  1  1  0  0  0
 14 15  1  0  0  0
  1  2  2  0  0  0
  1 10  1  0  0  0
  2  3  1  0  0  0
  3  4  1  0  0  0
  3  5  2  0  0  0
  5  6  1  0  0  0
  6  7  2  0  0  0
  6 10  1  0  0  0
  7  8  1  0  0  0
  8  9  2  0  0  0
  9 10  1  0  0  0
M  END
> <minimizedAffinity>
0.90304

> <CNNscore>
0.0078104218

> <CNNaffinity>
4.3985104561

$$$$
