


 11 11  0  0  0  0  0  0  0  0999 V2000
  -16.8824   14.3385   24.6994 C   0  0  0  0  0  0  0  0  0  0  0  0
  -15.7144   13.5845   24.7841 N   0  0  0  0  0  0  0  0  0  0  0  0
  -15.5081   12.5657   23.9300 N   0  0  0  0  0  0  0  0  0  0  0  0
  -14.3400   11.8117   24.0147 C   0  0  0  0  0  0  0  0  0  0  0  0
  -14.1145   10.6985   23.0815 N   0  0  0  0  0  0  0  0  0  0  0  0
  -18.0575   13.9682   23.5064 S   0  0  0  0  0  0  0  0  0  0  0  0
  -13.2889   10.1655   23.1413 H   0  0  0  0  0  0  0  0  0  0  0  0
  -14.7891   10.4858   22.3966 H   0  0  0  0  0  0  0  0  0  0  0  0
  -17.1156   15.4896   25.6643 C   0  0  0  0  0  0  0  0  0  0  0  0
  -16.8701   17.7339   25.1348 C   0  0  0  0  0  0  0  0  0  0  0  0
  -16.1778   16.5235   25.4033 O   0  0  0  0  0  0  0  0  0  0  0  0
 10 11  1  0  0  0
 11  9  1  0  0  0
  9  1  1  0  0  0
  1  2  2  0  0  0
  1  6  1  0  0  0
  2  3  1  0  0  0
  3  4  2  0  0  0
  4  5  1  0  0  0
  4  6  1  0  0  0
  5  7  1  0  0  0
  5  8  1  0  0  0
M  END
> <minimizedAffinity>
0.02442

> <CNNscore>
0.8076757789

> <CNNaffinity>
6.4964771271

$$$$
