


 12 12  0  0  0  0  0  0  0  0999 V2000
  -16.5162   11.9243   23.6066 C   0  0  0  0  0  0  0  0  0  0  0  0
  -16.7122   13.4216   23.7805 C   0  0  0  0  0  0  0  0  0  0  0  0
  -15.8449   14.1643   24.6582 C   0  0  0  0  0  0  0  0  0  0  0  0
  -16.0245   15.5363   24.8175 N   0  0  0  0  0  0  0  0  0  0  0  0
  -15.2142   16.2301   25.6375 N   0  0  0  0  0  0  0  0  0  0  0  0
  -17.7653   14.0976   23.0674 C   0  0  0  0  0  0  0  0  0  0  0  0
  -14.6190   16.7337   26.2385 H   0  0  0  0  0  0  0  0  0  0  0  0
  -14.4635   10.1372   20.7625 C   0  0  0  0  0  0  0  0  0  0  0  0
  -15.4951   10.3902   21.8498 C   0  0  0  0  0  0  0  0  0  0  0  0
  -16.3374    9.4868   22.1491 O   0  0  0  0  0  0  0  0  0  0  0  0
  -15.5185   11.6797   22.5551 N   0  0  0  0  0  0  0  0  0  0  0  0
  -14.8659   12.3795   22.3232 H   0  0  0  0  0  0  0  0  0  0  0  0
  8  9  1  0  0  0
  9 10  2  0  0  0
  9 11  1  0  0  0
 11  1  1  0  0  0
 11 12  1  0  0  0
  1  2  1  0  0  0
  2  3  1  0  0  0
  2  6  2  0  0  0
  3  4  2  0  0  0
  4  5  1  0  0  0
  5  6  1  0  0  0
  5  7  1  0  0  0
M  END
> <minimizedAffinity>
0.02919

> <CNNscore>
0.9711979628

> <CNNaffinity>
7.7075276375

$$$$
