


 11 12  0  0  0  0  0  0  0  0999 V2000
  -15.4379   13.5400   20.7613 Br  0  0  0  0  0  0  0  0  0  0  0  0
  -16.4724   13.4726   22.4247 C   0  0  0  0  0  0  0  0  0  0  0  0
  -17.1941   14.6361   22.8715 C   0  0  0  0  0  0  0  0  0  0  0  0
  -17.9542   14.5865   24.0938 C   0  0  0  0  0  0  0  0  0  0  0  0
  -18.6523   15.7117   24.5259 N   0  0  0  0  0  0  0  0  0  0  0  0
  -19.3874   15.6638   25.7079 C   0  0  0  0  0  0  0  0  0  0  0  0
  -20.0853   16.7889   26.1400 N   0  0  0  0  0  0  0  0  0  0  0  0
  -20.8204   16.7410   27.3221 C   0  0  0  0  0  0  0  0  0  0  0  0
  -21.5422   17.9044   27.7689 C   0  0  0  0  0  0  0  0  0  0  0  0
  -22.3023   17.8549   28.9911 C   0  0  0  0  0  0  0  0  0  0  0  0
  -16.5107   12.2596   23.2002 C   0  0  0  0  0  0  0  0  0  0  0  0
  1  2  1  0  0  0
  2  3  2  0  0  0
  2 11  1  0  0  0
  3  4  1  0  0  0
  4  5  2  0  0  0
  5  6  1  0  0  0
  6  7  2  0  0  0
  6 11  1  0  0  0
  7  8  1  0  0  0
  8  9  2  0  0  0
  9 10  1  0  0  0
 10 11  2  0  0  0
M  END
> <minimizedAffinity>
0.25426

> <CNNscore>
0.6953891516

> <CNNaffinity>
5.6658697128

$$$$
