


 10 10  0  0  0  0  0  0  0  0999 V2000
  -17.2154   12.4396   22.7271 Br  0  0  0  0  0  0  0  0  0  0  0  0
  -17.2022   14.0097   23.9001 C   0  0  0  0  0  0  0  0  0  0  0  0
  -16.0133   14.3457   24.6402 C   0  0  0  0  0  0  0  0  0  0  0  0
  -16.0039   15.4615   25.4738 N   0  0  0  0  0  0  0  0  0  0  0  0
  -14.8931   15.7754   26.1651 N   0  0  0  0  0  0  0  0  0  0  0  0
  -18.3814   14.8274   24.0221 C   0  0  0  0  0  0  0  0  0  0  0  0
  -17.2076   16.2961   25.5982 C   0  0  0  0  0  0  0  0  0  0  0  0
  -16.9269   17.4520   26.5445 C   0  0  0  0  0  0  0  0  0  0  0  0
  -17.8842   17.4482   27.5933 O   0  0  0  0  0  0  0  0  0  0  0  0
  -18.7739   17.5452   27.2194 H   0  0  0  0  0  0  0  0  0  0  0  0
  1  2  1  0  0  0
  2  3  2  0  0  0
  2  6  1  0  0  0
  3  4  1  0  0  0
  4  7  1  0  0  0
  4  5  1  0  0  0
  7  8  1  0  0  0
  8  9  1  0  0  0
  9 10  1  0  0  0
  5  6  2  0  0  0
M  END
> <minimizedAffinity>
0.00526

> <CNNscore>
0.9886484742

> <CNNaffinity>
6.8012938499

$$$$
