


 18 19  0  0  0  0  0  0  0  0999 V2000
  -19.2053   14.1960   22.9721 N   0  0  0  0  0  0  0  0  0  0  0  0
  -18.1137   13.2191   22.8484 C   0  0  0  0  0  0  0  0  0  0  0  0
  -16.9828   13.4598   23.3758 O   0  0  0  0  0  0  0  0  0  0  0  0
  -20.0814   14.0095   22.5635 H   0  0  0  0  0  0  0  0  0  0  0  0
  -18.3377   11.9212   22.0896 C   0  0  0  0  0  0  0  0  0  0  0  0
  -19.6720   11.5226   21.7227 C   0  0  0  0  0  0  0  0  0  0  0  0
  -19.8841   10.2928   21.0037 C   0  0  0  0  0  0  0  0  0  0  0  0
  -21.2185    9.8942   20.6368 C   0  0  0  0  0  0  0  0  0  0  0  0
  -21.4237    8.7049   19.9415 N   0  0  0  0  0  0  0  0  0  0  0  0
  -17.2153   11.0901   21.7376 C   0  0  0  0  0  0  0  0  0  0  0  0
  -18.9887   15.4511   23.7059 C   0  0  0  0  0  0  0  0  0  0  0  0
  -21.0927   13.4919   24.0758 N   0  0  0  0  0  0  0  0  0  0  0  0
  -21.0818   14.6011   24.9182 C   0  0  0  0  0  0  0  0  0  0  0  0
  -20.0575   15.6035   24.7757 C   0  0  0  0  0  0  0  0  0  0  0  0
  -20.0462   16.7503   25.6469 C   0  0  0  0  0  0  0  0  0  0  0  0
  -20.1465   13.3571   23.1288 N   0  0  0  0  0  0  0  0  0  0  0  0
  -21.7698   11.2471   23.3952 C   0  0  0  0  0  0  0  0  0  0  0  0
  -22.1381   12.4688   24.2212 C   0  0  0  0  0  0  0  0  0  0  0  0
 17 18  1  0  0  0
 18 12  1  0  0  0
 12 13  1  0  0  0
 12 16  1  0  0  0
 13 14  2  0  0  0
 14 11  1  0  0  0
 14 15  1  0  0  0
 11  1  1  0  0  0
  1  2  1  0  0  0
  1  4  1  0  0  0
  2  3  2  0  0  0
  2  5  1  0  0  0
  5  6  1  0  0  0
  5 10  2  0  0  0
  6  7  2  0  0  0
  7  8  1  0  0  0
  8  9  2  0  0  0
  9 10  1  0  0  0
 15 16  2  0  0  0
M  END
> <minimizedAffinity>
0.37842

> <CNNscore>
0.0001891483

> <CNNaffinity>
4.0303344727

$$$$
