


 11 11  0  0  0  0  0  0  0  0999 V2000
  -18.5558   14.6690   24.8820 N   0  0  0  0  0  0  0  0  0  0  0  0
  -17.3215   14.3026   25.4133 C   0  0  0  0  0  0  0  0  0  0  0  0
  -16.4600   13.4088   24.6833 C   0  0  0  0  0  0  0  0  0  0  0  0
  -15.1838   13.0299   25.2327 C   0  0  0  0  0  0  0  0  0  0  0  0
  -18.9432   14.1880   23.6867 N   0  0  0  0  0  0  0  0  0  0  0  0
  -18.6153   16.3555   26.6464 C   0  0  0  0  0  0  0  0  0  0  0  0
  -19.4352   15.5814   25.6272 C   0  0  0  0  0  0  0  0  0  0  0  0
  -16.8977   12.8653   23.3329 C   0  0  0  0  0  0  0  0  0  0  0  0
  -15.8647   11.8713   22.8277 C   0  0  0  0  0  0  0  0  0  0  0  0
  -16.5221   10.7062   22.3518 O   0  0  0  0  0  0  0  0  0  0  0  0
  -17.0312   10.3047   23.0733 H   0  0  0  0  0  0  0  0  0  0  0  0
  6  7  1  0  0  0
  7  1  1  0  0  0
  1  2  1  0  0  0
  1  5  1  0  0  0
  2  3  2  0  0  0
  3  8  1  0  0  0
  3  4  1  0  0  0
  8  9  1  0  0  0
  9 10  1  0  0  0
 10 11  1  0  0  0
  4  5  2  0  0  0
M  END
> <minimizedAffinity>
0.06552

> <CNNscore>
0.8646429777

> <CNNaffinity>
6.1754956245

$$$$
