


 13 14  0  0  0  0  0  0  0  0999 V2000
  -15.6913   12.3770   22.1967 C   0  0  0  0  0  0  0  0  0  0  0  0
  -16.8495   13.1082   22.4492 N   0  0  0  0  0  0  0  0  0  0  0  0
  -16.9120   13.9208   23.5197 N   0  0  0  0  0  0  0  0  0  0  0  0
  -18.0703   14.6520   23.7722 C   0  0  0  0  0  0  0  0  0  0  0  0
  -18.1373   15.5218   24.9181 C   0  0  0  0  0  0  0  0  0  0  0  0
  -19.3349   16.2778   25.1793 C   0  0  0  0  0  0  0  0  0  0  0  0
  -19.4018   17.1477   26.3252 C   0  0  0  0  0  0  0  0  0  0  0  0
  -20.5995   17.9037   26.5863 C   0  0  0  0  0  0  0  0  0  0  0  0
  -19.1637   14.5419   22.9166 N   0  0  0  0  0  0  0  0  0  0  0  0
  -15.6206   11.4589   20.9873 C   0  0  0  0  0  0  0  0  0  0  0  0
  -14.1990    9.5865   20.5020 C   0  0  0  0  0  0  0  0  0  0  0  0
  -15.2222   10.1110   21.4179 N   0  0  0  0  0  0  0  0  0  0  0  0
  -14.8420   10.1547   22.3634 H   0  0  0  0  0  0  0  0  0  0  0  0
 11 12  1  0  0  0
 12 10  1  0  0  0
 12 13  1  0  0  0
 10  1  1  0  0  0
  1  2  2  0  0  0
  1  9  1  0  0  0
  2  3  1  0  0  0
  3  4  2  0  0  0
  4  5  1  0  0  0
  4  9  1  0  0  0
  5  6  2  0  0  0
  6  7  1  0  0  0
  7  8  2  0  0  0
  8  9  1  0  0  0
M  END
> <minimizedAffinity>
0.10015

> <CNNscore>
0.5969862938

> <CNNaffinity>
6.6251969337

$$$$
