F362
     RDKit          3D

 30 31  0  0  0  0  0  0  0  0999 V2000
  -24.7121   16.1674   28.7701 C   0  0  0  0  0  0  0  0  0  0  0  0
  -23.3623   16.1485   29.4786 C   0  0  0  0  0  0  0  0  0  0  0  0
  -22.2603   16.0815   28.5110 N   0  0  0  0  0  0  0  0  0  0  0  0
  -21.7922   17.2825   27.8086 C   0  0  0  0  0  0  0  0  0  0  0  0
  -21.5291   16.9762   26.3384 C   0  0  0  0  0  0  0  0  0  0  0  0
  -21.5000   14.8704   28.3994 C   0  0  0  0  0  0  0  0  0  0  0  0
  -20.1078   14.9009   28.2228 C   0  0  0  0  0  0  0  0  0  0  0  0
  -19.4072   13.6765   28.1240 C   0  0  0  0  0  0  0  0  0  0  0  0
  -17.9230   13.6755   27.9447 C   0  0  0  0  0  0  0  0  0  0  0  0
  -20.0820   12.4895   28.2057 N   0  0  0  0  0  0  0  0  0  0  0  0
  -21.4263   12.5116   28.3746 C   0  0  0  0  0  0  0  0  0  0  0  0
  -22.2242   11.4357   28.4740 N   0  0  0  0  0  0  0  0  0  0  0  0
  -23.4387   12.0291   28.6302 C   0  0  0  0  0  0  0  0  0  0  0  0
  -23.3781   13.3832   28.6241 N   0  0  0  0  0  0  0  0  0  0  0  0
  -22.0996   13.6567   28.4636 N   0  0  0  0  0  0  0  0  0  0  0  0
  -24.7430   16.9929   28.0276 H   0  0  0  0  0  0  0  0  0  0  0  0
  -24.8927   15.1992   28.2581 H   0  0  0  0  0  0  0  0  0  0  0  0
  -25.5209   16.3249   29.5143 H   0  0  0  0  0  0  0  0  0  0  0  0
  -23.2854   17.0631   30.1047 H   0  0  0  0  0  0  0  0  0  0  0  0
  -23.3129   15.2746   30.1639 H   0  0  0  0  0  0  0  0  0  0  0  0
  -22.5439   18.0985   27.8683 H   0  0  0  0  0  0  0  0  0  0  0  0
  -20.8590   17.6558   28.2836 H   0  0  0  0  0  0  0  0  0  0  0  0
  -22.4465   16.5668   25.8647 H   0  0  0  0  0  0  0  0  0  0  0  0
  -20.7039   16.2398   26.2392 H   0  0  0  0  0  0  0  0  0  0  0  0
  -21.2369   17.9077   25.8096 H   0  0  0  0  0  0  0  0  0  0  0  0
  -19.5835   15.8471   28.1663 H   0  0  0  0  0  0  0  0  0  0  0  0
  -17.4390   14.1313   28.8338 H   0  0  0  0  0  0  0  0  0  0  0  0
  -17.6529   14.2603   27.0402 H   0  0  0  0  0  0  0  0  0  0  0  0
  -17.5450   12.6380   27.8236 H   0  0  0  0  0  0  0  0  0  0  0  0
  -24.3609   11.4758   28.7460 H   0  0  0  0  0  0  0  0  0  0  0  0
  1  2  1  0
  2  3  1  0
  3  4  1  0
  4  5  1  0
  3  6  1  0
  6  7  2  0
  7  8  1  0
  8  9  1  0
  8 10  2  0
 10 11  1  0
 11 12  2  0
 12 13  1  0
 13 14  2  0
 14 15  1  0
 15  6  1  0
 15 11  1  0
  1 16  1  0
  1 17  1  0
  1 18  1  0
  2 19  1  0
  2 20  1  0
  4 21  1  0
  4 22  1  0
  5 23  1  0
  5 24  1  0
  5 25  1  0
  7 26  1  0
  9 27  1  0
  9 28  1  0
  9 29  1  0
 13 30  1  0
M  END
>  <CHROM.1>  (1) 
80.20556829,-137.66922215,-140.22384079,1.67316042,0.16488929,0.07973082

>  <Name>  (1) 
F362

>  <RI>  (1) 
2.08821e+07

>  <Rbt.Current_Directory>  (1) 
/data/out

>  <Rbt.Executable>  (1) 
rbdock ($Id: //depot/dev/client3/rdock/2013.1/src/exe/rbdock.cxx#4 $)

>  <Rbt.Library>  (1) 
libRbt.so (2013.1, Build901 2013/11/27)

>  <Rbt.Parameter_File>  (1) 
/python_libraries/phenodiscovery/docking/templates/RDOCK_TETHER.conf

>  <Rbt.Receptor>  (1) 
/data/out/rdock-opt/grid/rdock-grid.prm

>  <SCORE>  (1) 
9.24975

>  <SCORE.INTER>  (1) 
8.58065

>  <SCORE.INTER.CONST>  (1) 
1

>  <SCORE.INTER.POLAR>  (1) 
0

>  <SCORE.INTER.REPUL>  (1) 
0

>  <SCORE.INTER.ROT>  (1) 
3

>  <SCORE.INTER.VDW>  (1) 
0.180652

>  <SCORE.INTER.norm>  (1) 
0.572043

>  <SCORE.INTRA>  (1) 
0.669093

>  <SCORE.INTRA.DIHEDRAL>  (1) 
-7.96116

>  <SCORE.INTRA.DIHEDRAL.0>  (1) 
16.9581

>  <SCORE.INTRA.POLAR>  (1) 
0

>  <SCORE.INTRA.POLAR.0>  (1) 
0

>  <SCORE.INTRA.REPUL>  (1) 
0

>  <SCORE.INTRA.REPUL.0>  (1) 
0

>  <SCORE.INTRA.VDW>  (1) 
4.64967

>  <SCORE.INTRA.VDW.0>  (1) 
-2.64733

>  <SCORE.INTRA.norm>  (1) 
0.0446062

>  <SCORE.RESTR>  (1) 
0

>  <SCORE.RESTR.CAVITY>  (1) 
0

>  <SCORE.RESTR.norm>  (1) 
0

>  <SCORE.SYSTEM>  (1) 
0

>  <SCORE.SYSTEM.CONST>  (1) 
0

>  <SCORE.SYSTEM.DIHEDRAL>  (1) 
0

>  <SCORE.SYSTEM.norm>  (1) 
0

>  <SCORE.heavy>  (1) 
15

>  <SCORE.norm>  (1) 
0.61665

>  <TETHERED ATOMS>  (1) 
1,2,3,6,15,14,13

>  <skeledock_score>  (1) 
20

$$$$
