F369
     RDKit          3D

 32 33  0  0  0  0  0  0  0  0999 V2000
  -17.6529   11.3279   22.7272 C   0  0  0  0  0  0  0  0  0  0  0  0
  -17.3026   12.4945   23.6446 C   0  0  0  0  0  0  0  0  0  0  0  0
  -18.4866   12.9578   24.3630 N   0  0  0  0  0  0  0  0  0  0  0  0
  -18.5051   13.8688   25.3541 C   0  0  0  0  0  0  0  0  0  0  0  0
  -19.8133   13.9960   25.7719 C   0  0  0  0  0  0  0  0  0  0  0  0
  -20.3097   14.7729   26.8690 N   0  0  0  0  0  0  0  0  0  0  0  0
  -19.4474   15.5270   27.7319 C   0  0  0  0  0  0  0  0  0  0  0  0
  -18.4306   16.1009   27.2564 O   0  0  0  0  0  0  0  0  0  0  0  0
  -19.7424   15.6662   29.2037 C   0  0  0  0  0  0  0  0  0  0  0  0
  -20.5887   14.5328   29.7577 C   0  0  0  0  0  0  0  0  0  0  0  0
  -20.3035   14.5279   31.2539 C   0  0  0  0  0  0  0  0  0  0  0  0
  -18.9395   15.1927   31.4451 C   0  0  0  0  0  0  0  0  0  0  0  0
  -18.4905   15.6885   30.0747 C   0  0  0  0  0  0  0  0  0  0  0  0
  -20.5441   13.1134   25.0044 C   0  0  0  0  0  0  0  0  0  0  0  0
  -19.7093   12.4923   24.1469 N   0  0  0  0  0  0  0  0  0  0  0  0
  -18.0891   10.4957   23.3195 H   0  0  0  0  0  0  0  0  0  0  0  0
  -18.3834   11.6498   21.9552 H   0  0  0  0  0  0  0  0  0  0  0  0
  -16.7350   10.9644   22.2191 H   0  0  0  0  0  0  0  0  0  0  0  0
  -16.8793   13.3299   23.0462 H   0  0  0  0  0  0  0  0  0  0  0  0
  -16.5291   12.1612   24.3705 H   0  0  0  0  0  0  0  0  0  0  0  0
  -17.6314   14.3648   25.7562 H   0  0  0  0  0  0  0  0  0  0  0  0
  -21.3271   14.7107   27.0969 H   0  0  0  0  0  0  0  0  0  0  0  0
  -20.2923   16.6214   29.3720 H   0  0  0  0  0  0  0  0  0  0  0  0
  -21.6689   14.6963   29.5514 H   0  0  0  0  0  0  0  0  0  0  0  0
  -20.2770   13.5576   29.3221 H   0  0  0  0  0  0  0  0  0  0  0  0
  -21.0854   15.1143   31.7853 H   0  0  0  0  0  0  0  0  0  0  0  0
  -20.3025   13.4895   31.6511 H   0  0  0  0  0  0  0  0  0  0  0  0
  -18.2032   14.4677   31.8565 H   0  0  0  0  0  0  0  0  0  0  0  0
  -19.0293   16.0481   32.1504 H   0  0  0  0  0  0  0  0  0  0  0  0
  -17.7078   15.0031   29.6832 H   0  0  0  0  0  0  0  0  0  0  0  0
  -18.0669   16.7147   30.1366 H   0  0  0  0  0  0  0  0  0  0  0  0
  -21.6062   12.9212   25.0749 H   0  0  0  0  0  0  0  0  0  0  0  0
  1  2  1  0
  2  3  1  0
  3  4  1  0
  4  5  2  0
  5  6  1  0
  6  7  1  0
  7  8  2  0
  7  9  1  0
  9 10  1  0
 10 11  1  0
 11 12  1  0
 12 13  1  0
  5 14  1  0
 14 15  2  0
 15  3  1  0
 13  9  1  0
  1 16  1  0
  1 17  1  0
  1 18  1  0
  2 19  1  0
  2 20  1  0
  4 21  1  0
  6 22  1  0
  9 23  1  0
 10 24  1  0
 10 25  1  0
 11 26  1  0
 11 27  1  0
 12 28  1  0
 12 29  1  0
 13 30  1  0
 13 31  1  0
 14 32  1  0
M  END
>  <CHROM.1>  (1) 
172.31815435,-1.70291579,24.73892797,1.46511060,-0.13362521,-1.84311997

>  <Name>  (1) 
F369

>  <RI>  (1) 
3.60485e+07

>  <Rbt.Current_Directory>  (1) 
/data/out

>  <Rbt.Executable>  (1) 
rbdock ($Id: //depot/dev/client3/rdock/2013.1/src/exe/rbdock.cxx#4 $)

>  <Rbt.Library>  (1) 
libRbt.so (2013.1, Build901 2013/11/27)

>  <Rbt.Parameter_File>  (1) 
/python_libraries/phenodiscovery/docking/templates/RDOCK_TETHER.conf

>  <Rbt.Receptor>  (1) 
/data/out/rdock-opt/grid/rdock-grid.prm

>  <SCORE>  (1) 
-2.01049

>  <SCORE.INTER>  (1) 
-2.30451

>  <SCORE.INTER.CONST>  (1) 
1

>  <SCORE.INTER.POLAR>  (1) 
0

>  <SCORE.INTER.REPUL>  (1) 
0.0148767

>  <SCORE.INTER.ROT>  (1) 
3

>  <SCORE.INTER.VDW>  (1) 
-10.7789

>  <SCORE.INTER.norm>  (1) 
-0.153634

>  <SCORE.INTRA>  (1) 
0.294013

>  <SCORE.INTRA.DIHEDRAL>  (1) 
-0.336455

>  <SCORE.INTRA.DIHEDRAL.0>  (1) 
5.82032

>  <SCORE.INTRA.POLAR>  (1) 
0

>  <SCORE.INTRA.POLAR.0>  (1) 
0

>  <SCORE.INTRA.REPUL>  (1) 
0

>  <SCORE.INTRA.REPUL.0>  (1) 
0

>  <SCORE.INTRA.VDW>  (1) 
0.462241

>  <SCORE.INTRA.VDW.0>  (1) 
-2.17672

>  <SCORE.INTRA.norm>  (1) 
0.0196009

>  <SCORE.RESTR>  (1) 
0

>  <SCORE.RESTR.CAVITY>  (1) 
0

>  <SCORE.RESTR.norm>  (1) 
0

>  <SCORE.SYSTEM>  (1) 
0

>  <SCORE.SYSTEM.CONST>  (1) 
0

>  <SCORE.SYSTEM.DIHEDRAL>  (1) 
0

>  <SCORE.SYSTEM.norm>  (1) 
0

>  <SCORE.heavy>  (1) 
15

>  <SCORE.norm>  (1) 
-0.134033

>  <TETHERED ATOMS>  (1) 
5,6,7,9,13,12,3,4,11,10

>  <skeledock_score>  (1) 
40

$$$$
