F14
     RDKit          3D

 19 19  0  0  0  0  0  0  0  0999 V2000
  -20.1560   17.8126   32.6137 Br  0  0  0  0  0  0  0  0  0  0  0  0
  -19.5822   16.6867   31.1864 C   0  0  0  0  0  0  0  0  0  0  0  0
  -20.2319   15.5835   30.6829 C   0  0  0  0  0  0  0  0  0  0  0  0
  -19.4833   15.0870   29.6803 N   0  0  0  0  0  0  0  0  0  0  0  0
  -19.8274   13.9486   28.8350 C   0  0  0  0  0  0  0  0  0  0  0  0
  -19.8367   14.3669   27.3649 C   0  0  0  0  0  0  0  0  0  0  0  0
  -20.7102   15.4634   27.1741 O   0  0  0  0  0  0  0  0  0  0  0  0
  -20.6614   15.9003   25.8336 C   0  0  0  0  0  0  0  0  0  0  0  0
  -18.4002   15.8303   29.5103 N   0  0  0  0  0  0  0  0  0  0  0  0
  -18.4359   16.8154   30.4290 C   0  0  0  0  0  0  0  0  0  0  0  0
  -21.1790   15.1783   31.0153 H   0  0  0  0  0  0  0  0  0  0  0  0
  -19.0856   13.1362   28.9922 H   0  0  0  0  0  0  0  0  0  0  0  0
  -20.8285   13.5575   29.1199 H   0  0  0  0  0  0  0  0  0  0  0  0
  -18.8118   14.6931   27.0869 H   0  0  0  0  0  0  0  0  0  0  0  0
  -20.0708   13.4875   26.7169 H   0  0  0  0  0  0  0  0  0  0  0  0
  -20.8986   15.0756   25.1253 H   0  0  0  0  0  0  0  0  0  0  0  0
  -19.6670   16.3400   25.5984 H   0  0  0  0  0  0  0  0  0  0  0  0
  -21.4227   16.6945   25.6920 H   0  0  0  0  0  0  0  0  0  0  0  0
  -17.6795   17.5815   30.5341 H   0  0  0  0  0  0  0  0  0  0  0  0
  1  2  1  0
  2  3  2  0
  3  4  1  0
  4  5  1  0
  5  6  1  0
  6  7  1  0
  7  8  1  0
  4  9  1  0
  9 10  2  0
 10  2  1  0
  3 11  1  0
  5 12  1  0
  5 13  1  0
  6 14  1  0
  6 15  1  0
  8 16  1  0
  8 17  1  0
  8 18  1  0
 10 19  1  0
M  END
>  <CHROM.1>  (1) 
122.60927027,-55.39733198,176.61003081,-2.10819267,-1.36016394,0.83816608

>  <Name>  (1) 
F14

>  <RI>  (1) 
1.10548e+07

>  <Rbt.Current_Directory>  (1) 
/data/out

>  <Rbt.Executable>  (1) 
rbdock ($Id: //depot/dev/client3/rdock/2013.1/src/exe/rbdock.cxx#4 $)

>  <Rbt.Library>  (1) 
libRbt.so (2013.1, Build901 2013/11/27)

>  <Rbt.Parameter_File>  (1) 
/python_libraries/phenodiscovery/docking/templates/RDOCK_TETHER.conf

>  <Rbt.Receptor>  (1) 
/data/out/rdock-opt/grid/rdock-grid.prm

>  <SCORE>  (1) 
-0.470946

>  <SCORE.INTER>  (1) 
2.24875

>  <SCORE.INTER.CONST>  (1) 
1

>  <SCORE.INTER.POLAR>  (1) 
0

>  <SCORE.INTER.REPUL>  (1) 
0

>  <SCORE.INTER.ROT>  (1) 
3

>  <SCORE.INTER.VDW>  (1) 
-6.15125

>  <SCORE.INTER.norm>  (1) 
0.224875

>  <SCORE.INTRA>  (1) 
-2.7197

>  <SCORE.INTRA.DIHEDRAL>  (1) 
-5.32364

>  <SCORE.INTRA.DIHEDRAL.0>  (1) 
7.73022

>  <SCORE.INTRA.POLAR>  (1) 
0

>  <SCORE.INTRA.POLAR.0>  (1) 
0

>  <SCORE.INTRA.REPUL>  (1) 
0

>  <SCORE.INTRA.REPUL.0>  (1) 
0

>  <SCORE.INTRA.VDW>  (1) 
-0.0578776

>  <SCORE.INTRA.VDW.0>  (1) 
0.589639

>  <SCORE.INTRA.norm>  (1) 
-0.27197

>  <SCORE.RESTR>  (1) 
0

>  <SCORE.RESTR.CAVITY>  (1) 
0

>  <SCORE.RESTR.norm>  (1) 
0

>  <SCORE.SYSTEM>  (1) 
0

>  <SCORE.SYSTEM.CONST>  (1) 
0

>  <SCORE.SYSTEM.DIHEDRAL>  (1) 
0

>  <SCORE.SYSTEM.norm>  (1) 
0

>  <SCORE.heavy>  (1) 
10

>  <SCORE.norm>  (1) 
-0.0470946

>  <TETHERED ATOMS>  (1) 
5,6,8,2,3

>  <skeledock_score>  (1) 
20

$$$$
