F96
     RDKit          3D

 19 19  0  0  0  0  0  0  0  0999 V2000
  -23.2607   14.0821   28.6188 C   0  0  0  0  0  0  0  0  0  0  0  0
  -21.8041   14.3466   28.4199 C   0  0  0  0  0  0  0  0  0  0  0  0
  -21.4015   15.5273   28.2370 O   0  0  0  0  0  0  0  0  0  0  0  0
  -20.8737   13.2563   28.4350 N   0  0  0  0  0  0  0  0  0  0  0  0
  -19.4294   13.4518   28.3211 C   0  0  0  0  0  0  0  0  0  0  0  0
  -19.0441   14.0137   26.9820 C   0  0  0  0  0  0  0  0  0  0  0  0
  -19.4154   13.5901   25.7166 C   0  0  0  0  0  0  0  0  0  0  0  0
  -18.8047   14.3627   24.7965 N   0  0  0  0  0  0  0  0  0  0  0  0
  -18.0652   15.2520   25.4401 N   0  0  0  0  0  0  0  0  0  0  0  0
  -18.1858   15.0696   26.7662 C   0  0  0  0  0  0  0  0  0  0  0  0
  -23.8400   15.0290   28.5772 H   0  0  0  0  0  0  0  0  0  0  0  0
  -23.6259   13.4013   27.8218 H   0  0  0  0  0  0  0  0  0  0  0  0
  -23.4199   13.6055   29.6084 H   0  0  0  0  0  0  0  0  0  0  0  0
  -21.2313   12.2924   28.6232 H   0  0  0  0  0  0  0  0  0  0  0  0
  -19.0722   14.1250   29.1297 H   0  0  0  0  0  0  0  0  0  0  0  0
  -18.9211   12.4718   28.4466 H   0  0  0  0  0  0  0  0  0  0  0  0
  -20.0775   12.7690   25.4764 H   0  0  0  0  0  0  0  0  0  0  0  0
  -17.4797   15.9780   24.9715 H   0  0  0  0  0  0  0  0  0  0  0  0
  -17.6788   15.6587   27.5193 H   0  0  0  0  0  0  0  0  0  0  0  0
  1  2  1  0
  2  3  2  0
  2  4  1  0
  4  5  1  0
  5  6  1  0
  6  7  1  0
  7  8  2  0
  8  9  1  0
  9 10  1  0
  6 10  2  0
  1 11  1  0
  1 12  1  0
  1 13  1  0
  4 14  1  0
  5 15  1  0
  5 16  1  0
  7 17  1  0
  9 18  1  0
 10 19  1  0
M  END
>  <CHROM.1>  (1) 
-65.17264240,-49.24683788,2.43407174,-0.00515122,1.83771036

>  <Name>  (1) 
F96

>  <RI>  (1) 
2.44938e+07

>  <Rbt.Current_Directory>  (1) 
/data/out

>  <Rbt.Executable>  (1) 
rbdock ($Id: //depot/dev/client3/rdock/2013.1/src/exe/rbdock.cxx#4 $)

>  <Rbt.Library>  (1) 
libRbt.so (2013.1, Build901 2013/11/27)

>  <Rbt.Parameter_File>  (1) 
/python_libraries/phenodiscovery/docking/templates/RDOCK_TETHER.conf

>  <Rbt.Receptor>  (1) 
/data/out/rdock-opt/grid/rdock-grid.prm

>  <SCORE>  (1) 
-2.7808

>  <SCORE.INTER>  (1) 
-2.74035

>  <SCORE.INTER.CONST>  (1) 
1

>  <SCORE.INTER.POLAR>  (1) 
-0.862885

>  <SCORE.INTER.REPUL>  (1) 
0

>  <SCORE.INTER.ROT>  (1) 
2

>  <SCORE.INTER.VDW>  (1) 
-7.20655

>  <SCORE.INTER.norm>  (1) 
-0.274035

>  <SCORE.INTRA>  (1) 
-0.0404431

>  <SCORE.INTRA.DIHEDRAL>  (1) 
-0.0746984

>  <SCORE.INTRA.DIHEDRAL.0>  (1) 
2.67198

>  <SCORE.INTRA.POLAR>  (1) 
0

>  <SCORE.INTRA.POLAR.0>  (1) 
0

>  <SCORE.INTRA.REPUL>  (1) 
0

>  <SCORE.INTRA.REPUL.0>  (1) 
0

>  <SCORE.INTRA.VDW>  (1) 
-0.00309394

>  <SCORE.INTRA.VDW.0>  (1) 
-1.48023

>  <SCORE.INTRA.norm>  (1) 
-0.00404431

>  <SCORE.RESTR>  (1) 
0

>  <SCORE.RESTR.CAVITY>  (1) 
0

>  <SCORE.RESTR.norm>  (1) 
0

>  <SCORE.SYSTEM>  (1) 
0

>  <SCORE.SYSTEM.CONST>  (1) 
0

>  <SCORE.SYSTEM.DIHEDRAL>  (1) 
0

>  <SCORE.SYSTEM.norm>  (1) 
0

>  <SCORE.heavy>  (1) 
10

>  <SCORE.norm>  (1) 
-0.27808

>  <TETHERED ATOMS>  (1) 
1,2,4,5,6,10,9,8,7

>  <skeledock_score>  (1) 
31

$$$$
