F529
     RDKit          3D

 23 23  0  0  0  0  0  0  0  0999 V2000
  -20.2141   13.1671   26.8156 C   0  0  0  0  0  0  0  0  0  0  0  0
  -19.6062   13.2281   28.1407 N   0  0  0  0  0  0  0  0  0  0  0  0
  -19.7284   14.3711   29.0126 C   0  0  0  0  0  0  0  0  0  0  0  0
  -20.5765   15.4410   28.6586 C   0  0  0  0  0  0  0  0  0  0  0  0
  -20.7133   16.5511   29.4927 C   0  0  0  0  0  0  0  0  0  0  0  0
  -20.0060   16.6164   30.6898 C   0  0  0  0  0  0  0  0  0  0  0  0
  -19.1587   15.5723   31.0585 C   0  0  0  0  0  0  0  0  0  0  0  0
  -19.0090   14.4425   30.2359 C   0  0  0  0  0  0  0  0  0  0  0  0
  -17.8763   13.1760   30.7444 S   0  0  0  0  0  0  0  0  0  0  0  0
  -17.9419   12.0139   29.7929 O   0  0  0  0  0  0  0  0  0  0  0  0
  -16.4710   13.7089   30.7413 O   0  0  0  0  0  0  0  0  0  0  0  0
  -18.3080   12.5810   32.3669 C   0  0  0  0  0  0  0  0  0  0  0  0
  -21.3190   13.1177   26.9048 H   0  0  0  0  0  0  0  0  0  0  0  0
  -19.8671   12.2561   26.2834 H   0  0  0  0  0  0  0  0  0  0  0  0
  -19.9196   14.0588   26.2230 H   0  0  0  0  0  0  0  0  0  0  0  0
  -19.0210   12.4129   28.4206 H   0  0  0  0  0  0  0  0  0  0  0  0
  -21.1457   15.4206   27.7398 H   0  0  0  0  0  0  0  0  0  0  0  0
  -21.3706   17.3630   29.2090 H   0  0  0  0  0  0  0  0  0  0  0  0
  -20.1122   17.4802   31.3335 H   0  0  0  0  0  0  0  0  0  0  0  0
  -18.6151   15.6543   31.9903 H   0  0  0  0  0  0  0  0  0  0  0  0
  -19.3543   12.2121   32.3580 H   0  0  0  0  0  0  0  0  0  0  0  0
  -18.2149   13.3938   33.1143 H   0  0  0  0  0  0  0  0  0  0  0  0
  -17.6293   11.7496   32.6483 H   0  0  0  0  0  0  0  0  0  0  0  0
  1  2  1  0
  2  3  1  0
  3  4  2  0
  4  5  1  0
  5  6  2  0
  6  7  1  0
  7  8  2  0
  8  9  1  0
  9 10  2  0
  9 11  2  0
  9 12  1  0
  3  8  1  0
  1 13  1  0
  1 14  1  0
  1 15  1  0
  2 16  1  0
  4 17  1  0
  5 18  1  0
  6 19  1  0
  7 20  1  0
 12 21  1  0
 12 22  1  0
 12 23  1  0
M  END
>  <CHROM.1>  (1) 
6.68079324,-6.58522081,-1.61475287,-0.87338039,0.78102475

>  <Name>  (1) 
F529

>  <RI>  (1) 
3.53943e+07

>  <Rbt.Current_Directory>  (1) 
/data/out

>  <Rbt.Executable>  (1) 
rbdock ($Id: //depot/dev/client3/rdock/2013.1/src/exe/rbdock.cxx#4 $)

>  <Rbt.Library>  (1) 
libRbt.so (2013.1, Build901 2013/11/27)

>  <Rbt.Parameter_File>  (1) 
/python_libraries/phenodiscovery/docking/templates/RDOCK_TETHER.conf

>  <Rbt.Receptor>  (1) 
/data/out/rdock-opt/grid/rdock-grid.prm

>  <SCORE>  (1) 
-1.06897

>  <SCORE.INTER>  (1) 
1.05033

>  <SCORE.INTER.CONST>  (1) 
1

>  <SCORE.INTER.POLAR>  (1) 
0

>  <SCORE.INTER.REPUL>  (1) 
0

>  <SCORE.INTER.ROT>  (1) 
2

>  <SCORE.INTER.VDW>  (1) 
-6.34967

>  <SCORE.INTER.norm>  (1) 
0.0875273

>  <SCORE.INTRA>  (1) 
-2.1193

>  <SCORE.INTRA.DIHEDRAL>  (1) 
-1.65146

>  <SCORE.INTRA.DIHEDRAL.0>  (1) 
2.93613

>  <SCORE.INTRA.POLAR>  (1) 
-0.531876

>  <SCORE.INTRA.POLAR.0>  (1) 
-0.00411106

>  <SCORE.INTRA.REPUL>  (1) 
0

>  <SCORE.INTRA.REPUL.0>  (1) 
0

>  <SCORE.INTRA.VDW>  (1) 
0.514816

>  <SCORE.INTRA.VDW.0>  (1) 
-1.17236

>  <SCORE.INTRA.norm>  (1) 
-0.176608

>  <SCORE.RESTR>  (1) 
0

>  <SCORE.RESTR.CAVITY>  (1) 
0

>  <SCORE.RESTR.norm>  (1) 
0

>  <SCORE.SYSTEM>  (1) 
0

>  <SCORE.SYSTEM.CONST>  (1) 
0

>  <SCORE.SYSTEM.DIHEDRAL>  (1) 
0

>  <SCORE.SYSTEM.norm>  (1) 
0

>  <SCORE.heavy>  (1) 
12

>  <SCORE.norm>  (1) 
-0.0890807

>  <TETHERED ATOMS>  (1) 
3,8,7,6,4,5,1,2

>  <skeledock_score>  (1) 
45

$$$$
