F467
     RDKit          3D

 23 23  0  0  0  0  0  0  0  0999 V2000
  -20.1956   13.4964   26.0256 C   0  0  0  0  0  0  0  0  0  0  0  0
  -20.3045   14.2196   27.2986 N   0  0  0  0  0  0  0  0  0  0  0  0
  -19.0693   14.6559   27.9669 C   0  0  0  0  0  0  0  0  0  0  0  0
  -18.4754   13.5135   28.7915 C   0  0  0  0  0  0  0  0  0  0  0  0
  -18.1543   12.4309   27.9617 O   0  0  0  0  0  0  0  0  0  0  0  0
  -21.5989   14.5514   27.8616 C   0  0  0  0  0  0  0  0  0  0  0  0
  -22.7909   13.9978   27.3502 C   0  0  0  0  0  0  0  0  0  0  0  0
  -24.0156   14.3376   27.9288 C   0  0  0  0  0  0  0  0  0  0  0  0
  -24.0556   15.2195   29.0074 C   0  0  0  0  0  0  0  0  0  0  0  0
  -22.8625   15.7532   29.4929 C   0  0  0  0  0  0  0  0  0  0  0  0
  -21.6788   15.4132   28.9169 N   0  0  0  0  0  0  0  0  0  0  0  0
  -19.1373   13.4009   25.7014 H   0  0  0  0  0  0  0  0  0  0  0  0
  -20.7441   14.0461   25.2318 H   0  0  0  0  0  0  0  0  0  0  0  0
  -20.6153   12.4744   26.1354 H   0  0  0  0  0  0  0  0  0  0  0  0
  -18.3263   15.0113   27.2203 H   0  0  0  0  0  0  0  0  0  0  0  0
  -19.2798   15.5208   28.6337 H   0  0  0  0  0  0  0  0  0  0  0  0
  -17.5711   13.8642   29.3392 H   0  0  0  0  0  0  0  0  0  0  0  0
  -19.2205   13.1747   29.5420 H   0  0  0  0  0  0  0  0  0  0  0  0
  -17.4635   12.7552   27.3264 H   0  0  0  0  0  0  0  0  0  0  0  0
  -22.7870   13.3070   26.5187 H   0  0  0  0  0  0  0  0  0  0  0  0
  -24.9338   13.9149   27.5416 H   0  0  0  0  0  0  0  0  0  0  0  0
  -25.0008   15.4871   29.4620 H   0  0  0  0  0  0  0  0  0  0  0  0
  -22.8759   16.4401   30.3286 H   0  0  0  0  0  0  0  0  0  0  0  0
  1  2  1  0
  2  3  1  0
  3  4  1  0
  4  5  1  0
  2  6  1  0
  6  7  2  0
  7  8  1  0
  8  9  2  0
  9 10  1  0
 10 11  2  0
  6 11  1  0
  1 12  1  0
  1 13  1  0
  1 14  1  0
  3 15  1  0
  3 16  1  0
  4 17  1  0
  4 18  1  0
  5 19  1  0
  7 20  1  0
  8 21  1  0
  9 22  1  0
 10 23  1  0
M  END
>  <CHROM.1>  (1) 
-83.27411349,60.91277933,62.28102650,11.48424882,2.88115049,-0.20953646,1.12759321

>  <Name>  (1) 
F467

>  <RI>  (1) 
3.13802e+07

>  <Rbt.Current_Directory>  (1) 
/data/out

>  <Rbt.Executable>  (1) 
rbdock ($Id: //depot/dev/client3/rdock/2013.1/src/exe/rbdock.cxx#4 $)

>  <Rbt.Library>  (1) 
libRbt.so (2013.1, Build901 2013/11/27)

>  <Rbt.Parameter_File>  (1) 
/python_libraries/phenodiscovery/docking/templates/RDOCK_TETHER.conf

>  <Rbt.Receptor>  (1) 
/data/out/rdock-opt/grid/rdock-grid.prm

>  <SCORE>  (1) 
-3.27411

>  <SCORE.INTER>  (1) 
-2.8237

>  <SCORE.INTER.CONST>  (1) 
1

>  <SCORE.INTER.POLAR>  (1) 
-0.460303

>  <SCORE.INTER.REPUL>  (1) 
0

>  <SCORE.INTER.ROT>  (1) 
3

>  <SCORE.INTER.VDW>  (1) 
-9.65867

>  <SCORE.INTER.norm>  (1) 
-0.2567

>  <SCORE.INTRA>  (1) 
-0.450412

>  <SCORE.INTRA.DIHEDRAL>  (1) 
-1.26521

>  <SCORE.INTRA.DIHEDRAL.0>  (1) 
3.94055

>  <SCORE.INTRA.POLAR>  (1) 
0

>  <SCORE.INTRA.POLAR.0>  (1) 
0

>  <SCORE.INTRA.REPUL>  (1) 
0

>  <SCORE.INTRA.REPUL.0>  (1) 
0

>  <SCORE.INTRA.VDW>  (1) 
0.182193

>  <SCORE.INTRA.VDW.0>  (1) 
0.173316

>  <SCORE.INTRA.norm>  (1) 
-0.0409465

>  <SCORE.RESTR>  (1) 
0

>  <SCORE.RESTR.CAVITY>  (1) 
0

>  <SCORE.RESTR.norm>  (1) 
0

>  <SCORE.SYSTEM>  (1) 
0

>  <SCORE.SYSTEM.CONST>  (1) 
0

>  <SCORE.SYSTEM.DIHEDRAL>  (1) 
0

>  <SCORE.SYSTEM.norm>  (1) 
0

>  <SCORE.heavy>  (1) 
11

>  <SCORE.norm>  (1) 
-0.297646

>  <TETHERED ATOMS>  (1) 
6,3,11,9,10,4

>  <skeledock_score>  (1) 
26

$$$$
