F666
     RDKit          3D

 35 37  0  0  0  0  0  0  0  0999 V2000
  -19.4244   13.9321   33.0748 F   0  0  0  0  0  0  0  0  0  0  0  0
  -19.4190   14.4137   31.8110 C   0  0  0  0  0  0  0  0  0  0  0  0
  -19.8648   15.7101   31.5672 C   0  0  0  0  0  0  0  0  0  0  0  0
  -19.9262   16.1931   30.2614 C   0  0  0  0  0  0  0  0  0  0  0  0
  -19.5409   15.3793   29.1786 C   0  0  0  0  0  0  0  0  0  0  0  0
  -19.0519   14.0865   29.4423 C   0  0  0  0  0  0  0  0  0  0  0  0
  -18.9928   13.6069   30.7535 C   0  0  0  0  0  0  0  0  0  0  0  0
  -19.7694   15.8044   27.8183 N   0  0  0  0  0  0  0  0  0  0  0  0
  -20.9370   15.3357   27.0606 C   0  0  0  0  0  0  0  0  0  0  0  0
  -20.4792   14.2913   26.0355 C   0  0  0  0  0  0  0  0  0  0  0  0
  -19.2171   14.6982   25.3922 N   0  0  0  0  0  0  0  0  0  0  0  0
  -18.7338   16.0775   25.5728 C   0  0  0  0  0  0  0  0  0  0  0  0
  -18.6522   16.4091   27.0696 C   0  0  0  0  0  0  0  0  0  0  0  0
  -18.4516   13.7411   24.6311 C   0  0  0  0  0  0  0  0  0  0  0  0
  -17.2284   13.9431   24.4068 O   0  0  0  0  0  0  0  0  0  0  0  0
  -19.0676   12.4596   24.1506 C   0  0  0  0  0  0  0  0  0  0  0  0
  -18.0786   11.3192   23.9597 C   0  0  0  0  0  0  0  0  0  0  0  0
  -19.0249   11.3085   25.1465 C   0  0  0  0  0  0  0  0  0  0  0  0
  -20.1948   16.3330   32.3890 H   0  0  0  0  0  0  0  0  0  0  0  0
  -20.3345   17.1809   30.1037 H   0  0  0  0  0  0  0  0  0  0  0  0
  -18.7457   13.4394   28.6303 H   0  0  0  0  0  0  0  0  0  0  0  0
  -18.6405   12.6017   30.9460 H   0  0  0  0  0  0  0  0  0  0  0  0
  -21.3912   16.1987   26.5270 H   0  0  0  0  0  0  0  0  0  0  0  0
  -21.7263   14.9233   27.7245 H   0  0  0  0  0  0  0  0  0  0  0  0
  -21.2685   14.1518   25.2668 H   0  0  0  0  0  0  0  0  0  0  0  0
  -20.3258   13.3255   26.5627 H   0  0  0  0  0  0  0  0  0  0  0  0
  -19.4442   16.7747   25.0781 H   0  0  0  0  0  0  0  0  0  0  0  0
  -17.7398   16.2365   25.1026 H   0  0  0  0  0  0  0  0  0  0  0  0
  -17.6867   16.0061   27.4490 H   0  0  0  0  0  0  0  0  0  0  0  0
  -18.6539   17.5100   27.2170 H   0  0  0  0  0  0  0  0  0  0  0  0
  -19.9348   12.4753   23.4572 H   0  0  0  0  0  0  0  0  0  0  0  0
  -17.0222   11.5377   24.2284 H   0  0  0  0  0  0  0  0  0  0  0  0
  -18.3532   10.6037   23.1561 H   0  0  0  0  0  0  0  0  0  0  0  0
  -19.8579   10.5810   25.0476 H   0  0  0  0  0  0  0  0  0  0  0  0
  -18.5217   11.5092   26.1169 H   0  0  0  0  0  0  0  0  0  0  0  0
  1  2  1  0
  2  3  2  0
  3  4  1  0
  4  5  2  0
  5  6  1  0
  6  7  2  0
  5  8  1  0
  8  9  1  0
  9 10  1  0
 10 11  1  0
 11 12  1  0
 12 13  1  0
 11 14  1  0
 14 15  2  0
 14 16  1  0
 16 17  1  0
 17 18  1  0
  2  7  1  0
 13  8  1  0
 18 16  1  0
  3 19  1  0
  4 20  1  0
  6 21  1  0
  7 22  1  0
  9 23  1  0
  9 24  1  0
 10 25  1  0
 10 26  1  0
 12 27  1  0
 12 28  1  0
 13 29  1  0
 13 30  1  0
 16 31  1  0
 17 32  1  0
 17 33  1  0
 18 34  1  0
 18 35  1  0
M  END
>  <CHROM.1>  (1) 
-97.71880537,-153.03139146,1.37064315,0.87758863,-1.55379434

>  <Name>  (1) 
F666

>  <RI>  (1) 
2.58098e+07

>  <Rbt.Current_Directory>  (1) 
/data/out

>  <Rbt.Executable>  (1) 
rbdock ($Id: //depot/dev/client3/rdock/2013.1/src/exe/rbdock.cxx#4 $)

>  <Rbt.Library>  (1) 
libRbt.so (2013.1, Build901 2013/11/27)

>  <Rbt.Parameter_File>  (1) 
/python_libraries/phenodiscovery/docking/templates/RDOCK_TETHER.conf

>  <Rbt.Receptor>  (1) 
/data/out/rdock-opt/grid/rdock-grid.prm

>  <SCORE>  (1) 
6.02898

>  <SCORE.INTER>  (1) 
3.5416

>  <SCORE.INTER.CONST>  (1) 
1

>  <SCORE.INTER.POLAR>  (1) 
0

>  <SCORE.INTER.REPUL>  (1) 
0

>  <SCORE.INTER.ROT>  (1) 
2

>  <SCORE.INTER.VDW>  (1) 
-3.8584

>  <SCORE.INTER.norm>  (1) 
0.196756

>  <SCORE.INTRA>  (1) 
2.48738

>  <SCORE.INTRA.DIHEDRAL>  (1) 
7.61882

>  <SCORE.INTRA.DIHEDRAL.0>  (1) 
6.76853

>  <SCORE.INTRA.POLAR>  (1) 
0

>  <SCORE.INTRA.POLAR.0>  (1) 
0

>  <SCORE.INTRA.REPUL>  (1) 
0

>  <SCORE.INTRA.REPUL.0>  (1) 
0

>  <SCORE.INTRA.VDW>  (1) 
-1.32203

>  <SCORE.INTRA.VDW.0>  (1) 
-1.40129

>  <SCORE.INTRA.norm>  (1) 
0.138188

>  <SCORE.RESTR>  (1) 
0

>  <SCORE.RESTR.CAVITY>  (1) 
0

>  <SCORE.RESTR.norm>  (1) 
0

>  <SCORE.SYSTEM>  (1) 
0

>  <SCORE.SYSTEM.CONST>  (1) 
0

>  <SCORE.SYSTEM.DIHEDRAL>  (1) 
0

>  <SCORE.SYSTEM.norm>  (1) 
0

>  <SCORE.heavy>  (1) 
18

>  <SCORE.norm>  (1) 
0.334943

>  <TETHERED ATOMS>  (1) 
9,10,11,14,15,16,1,2,3,4,5,8

>  <skeledock_score>  (1) 
52

$$$$
