F710
     RDKit          3D

 30 31  0  0  0  0  0  0  0  0999 V2000
  -28.9029   13.7287   28.7012 N   0  0  0  0  0  0  0  0  0  0  0  0
  -27.9095   14.7541   28.6201 C   0  0  0  0  0  0  0  0  0  0  0  0
  -28.2387   15.8910   28.1857 O   0  0  0  0  0  0  0  0  0  0  0  0
  -26.5541   14.5165   29.0479 N   0  0  0  0  0  0  0  0  0  0  0  0
  -25.7502   15.6577   29.5119 C   0  0  0  0  0  0  0  0  0  0  0  0
  -24.4548   15.1916   30.1746 C   0  0  0  0  0  0  0  0  0  0  0  0
  -23.7760   14.2340   29.2962 N   0  0  0  0  0  0  0  0  0  0  0  0
  -24.5371   13.1325   28.6861 C   0  0  0  0  0  0  0  0  0  0  0  0
  -26.0109   13.1498   29.1168 C   0  0  0  0  0  0  0  0  0  0  0  0
  -22.3880   14.4299   28.9715 C   0  0  0  0  0  0  0  0  0  0  0  0
  -21.9963   15.5372   28.2011 C   0  0  0  0  0  0  0  0  0  0  0  0
  -20.6670   15.6818   27.7992 C   0  0  0  0  0  0  0  0  0  0  0  0
  -19.7155   14.7276   28.1667 C   0  0  0  0  0  0  0  0  0  0  0  0
  -18.4263   14.8689   27.7716 F   0  0  0  0  0  0  0  0  0  0  0  0
  -20.0903   13.6321   28.9475 C   0  0  0  0  0  0  0  0  0  0  0  0
  -21.4206   13.4802   29.3478 C   0  0  0  0  0  0  0  0  0  0  0  0
  -29.8660   13.9061   28.3388 H   0  0  0  0  0  0  0  0  0  0  0  0
  -28.7182   12.8264   29.1916 H   0  0  0  0  0  0  0  0  0  0  0  0
  -25.5056   16.3092   28.6451 H   0  0  0  0  0  0  0  0  0  0  0  0
  -26.3324   16.2526   30.2493 H   0  0  0  0  0  0  0  0  0  0  0  0
  -23.8148   16.0773   30.3818 H   0  0  0  0  0  0  0  0  0  0  0  0
  -24.6881   14.6985   31.1431 H   0  0  0  0  0  0  0  0  0  0  0  0
  -24.0803   12.1612   28.9735 H   0  0  0  0  0  0  0  0  0  0  0  0
  -24.5056   13.2212   27.5804 H   0  0  0  0  0  0  0  0  0  0  0  0
  -26.1039   12.7713   30.1575 H   0  0  0  0  0  0  0  0  0  0  0  0
  -26.5698   12.4658   28.4425 H   0  0  0  0  0  0  0  0  0  0  0  0
  -22.7243   16.2810   27.9028 H   0  0  0  0  0  0  0  0  0  0  0  0
  -20.3751   16.5339   27.1987 H   0  0  0  0  0  0  0  0  0  0  0  0
  -19.3534   12.8915   29.2308 H   0  0  0  0  0  0  0  0  0  0  0  0
  -21.6949   12.6018   29.9149 H   0  0  0  0  0  0  0  0  0  0  0  0
  1  2  1  0
  2  3  2  0
  2  4  1  0
  4  5  1  0
  5  6  1  0
  6  7  1  0
  7  8  1  0
  8  9  1  0
  7 10  1  0
 10 11  2  0
 11 12  1  0
 12 13  2  0
 13 14  1  0
 13 15  1  0
 15 16  2  0
  9  4  1  0
 10 16  1  0
  1 17  1  0
  1 18  1  0
  5 19  1  0
  5 20  1  0
  6 21  1  0
  6 22  1  0
  8 23  1  0
  8 24  1  0
  9 25  1  0
  9 26  1  0
 11 27  1  0
 12 28  1  0
 15 29  1  0
 16 30  1  0
M  END
>  <CHROM.1>  (1) 
-66.22701827,-2.99939767,0.20530935,-0.46003359

>  <Name>  (1) 
F710

>  <RI>  (1) 
3.57588e+07

>  <Rbt.Current_Directory>  (1) 
/data/out

>  <Rbt.Executable>  (1) 
rbdock ($Id: //depot/dev/client3/rdock/2013.1/src/exe/rbdock.cxx#4 $)

>  <Rbt.Library>  (1) 
libRbt.so (2013.1, Build901 2013/11/27)

>  <Rbt.Parameter_File>  (1) 
/python_libraries/phenodiscovery/docking/templates/RDOCK_TETHER.conf

>  <Rbt.Receptor>  (1) 
/data/out/rdock-opt/grid/rdock-grid.prm

>  <SCORE>  (1) 
-3.12795

>  <SCORE.INTER>  (1) 
-3.59079

>  <SCORE.INTER.CONST>  (1) 
1

>  <SCORE.INTER.POLAR>  (1) 
0

>  <SCORE.INTER.REPUL>  (1) 
0

>  <SCORE.INTER.ROT>  (1) 
1

>  <SCORE.INTER.VDW>  (1) 
-9.99079

>  <SCORE.INTER.norm>  (1) 
-0.224424

>  <SCORE.INTRA>  (1) 
0.462839

>  <SCORE.INTRA.DIHEDRAL>  (1) 
3.49616

>  <SCORE.INTRA.DIHEDRAL.0>  (1) 
7.20798

>  <SCORE.INTRA.POLAR>  (1) 
0

>  <SCORE.INTRA.POLAR.0>  (1) 
0

>  <SCORE.INTRA.REPUL>  (1) 
0

>  <SCORE.INTRA.REPUL.0>  (1) 
0

>  <SCORE.INTRA.VDW>  (1) 
-1.28524

>  <SCORE.INTRA.VDW.0>  (1) 
-0.270691

>  <SCORE.INTRA.norm>  (1) 
0.0289274

>  <SCORE.RESTR>  (1) 
0

>  <SCORE.RESTR.CAVITY>  (1) 
0

>  <SCORE.RESTR.norm>  (1) 
0

>  <SCORE.SYSTEM>  (1) 
0

>  <SCORE.SYSTEM.CONST>  (1) 
0

>  <SCORE.SYSTEM.DIHEDRAL>  (1) 
0

>  <SCORE.SYSTEM.norm>  (1) 
0

>  <SCORE.heavy>  (1) 
16

>  <SCORE.norm>  (1) 
-0.195497

>  <TETHERED ATOMS>  (1) 
4,5,6,7,10,11,12,13

>  <skeledock_score>  (1) 
26

$$$$
