F126
     RDKit          3D

 23 23  0  0  0  0  0  0  0  0999 V2000
  -19.3264   15.1518   26.4783 C   0  0  0  0  0  0  0  0  0  0  0  0
  -19.6615   14.7589   27.9204 C   0  0  0  0  0  0  0  0  0  0  0  0
  -18.9804   13.4397   28.2969 C   0  0  0  0  0  0  0  0  0  0  0  0
  -21.1515   14.6587   28.1022 C   0  0  0  0  0  0  0  0  0  0  0  0
  -21.9017   13.9475   27.2210 N   0  0  0  0  0  0  0  0  0  0  0  0
  -23.2461   13.8557   27.3637 C   0  0  0  0  0  0  0  0  0  0  0  0
  -23.8887   14.5016   28.4215 C   0  0  0  0  0  0  0  0  0  0  0  0
  -25.6441   14.3866   28.5150 Cl  0  0  0  0  0  0  0  0  0  0  0  0
  -23.1025   15.2425   29.3325 C   0  0  0  0  0  0  0  0  0  0  0  0
  -21.7553   15.2955   29.1406 N   0  0  0  0  0  0  0  0  0  0  0  0
  -23.6781   15.9722   30.4893 C   0  0  0  0  0  0  0  0  0  0  0  0
  -23.0673   16.0222   31.5896 O   0  0  0  0  0  0  0  0  0  0  0  0
  -24.9282   16.6532   30.3658 N   0  0  0  0  0  0  0  0  0  0  0  0
  -18.2286   15.2760   26.3618 H   0  0  0  0  0  0  0  0  0  0  0  0
  -19.6758   14.3745   25.7648 H   0  0  0  0  0  0  0  0  0  0  0  0
  -19.8135   16.1175   26.2236 H   0  0  0  0  0  0  0  0  0  0  0  0
  -19.2674   15.5543   28.5919 H   0  0  0  0  0  0  0  0  0  0  0  0
  -19.2297   13.1679   29.3450 H   0  0  0  0  0  0  0  0  0  0  0  0
  -19.3074   12.6172   27.6246 H   0  0  0  0  0  0  0  0  0  0  0  0
  -17.8771   13.5451   28.2195 H   0  0  0  0  0  0  0  0  0  0  0  0
  -23.8187   13.2858   26.6436 H   0  0  0  0  0  0  0  0  0  0  0  0
  -25.3190   17.1821   31.1770 H   0  0  0  0  0  0  0  0  0  0  0  0
  -25.4795   16.6216   29.4799 H   0  0  0  0  0  0  0  0  0  0  0  0
  1  2  1  0
  2  3  1  0
  2  4  1  0
  4  5  2  0
  5  6  1  0
  6  7  2  0
  7  8  1  0
  7  9  1  0
  9 10  2  0
  9 11  1  0
 11 12  2  0
 11 13  1  0
  4 10  1  0
  1 14  1  0
  1 15  1  0
  1 16  1  0
  2 17  1  0
  3 18  1  0
  3 19  1  0
  3 20  1  0
  6 21  1  0
 13 22  1  0
 13 23  1  0
M  END
>  <CHROM.1>  (1) 
49.07957765,142.94534117,-0.52797624,-0.05445957,0.87809004

>  <Name>  (1) 
F126

>  <RI>  (1) 
1.11705e+07

>  <Rbt.Current_Directory>  (1) 
/data/out

>  <Rbt.Executable>  (1) 
rbdock ($Id: //depot/dev/client3/rdock/2013.1/src/exe/rbdock.cxx#4 $)

>  <Rbt.Library>  (1) 
libRbt.so (2013.1, Build901 2013/11/27)

>  <Rbt.Parameter_File>  (1) 
/python_libraries/phenodiscovery/docking/templates/RDOCK_TETHER.conf

>  <Rbt.Receptor>  (1) 
/data/out/rdock-opt/grid/rdock-grid.prm

>  <SCORE>  (1) 
-0.845309

>  <SCORE.INTER>  (1) 
-2.69091

>  <SCORE.INTER.CONST>  (1) 
1

>  <SCORE.INTER.POLAR>  (1) 
-0.489898

>  <SCORE.INTER.REPUL>  (1) 
0

>  <SCORE.INTER.ROT>  (1) 
2

>  <SCORE.INTER.VDW>  (1) 
-8.42525

>  <SCORE.INTER.norm>  (1) 
-0.206993

>  <SCORE.INTRA>  (1) 
1.8456

>  <SCORE.INTRA.DIHEDRAL>  (1) 
3.59723

>  <SCORE.INTRA.DIHEDRAL.0>  (1) 
1.91111

>  <SCORE.INTRA.POLAR>  (1) 
0

>  <SCORE.INTRA.POLAR.0>  (1) 
0

>  <SCORE.INTRA.REPUL>  (1) 
0

>  <SCORE.INTRA.REPUL.0>  (1) 
0

>  <SCORE.INTRA.VDW>  (1) 
0.0469804

>  <SCORE.INTRA.VDW.0>  (1) 
-1.27771

>  <SCORE.INTRA.norm>  (1) 
0.141969

>  <SCORE.RESTR>  (1) 
0

>  <SCORE.RESTR.CAVITY>  (1) 
0

>  <SCORE.RESTR.norm>  (1) 
0

>  <SCORE.SYSTEM>  (1) 
0

>  <SCORE.SYSTEM.CONST>  (1) 
0

>  <SCORE.SYSTEM.DIHEDRAL>  (1) 
0

>  <SCORE.SYSTEM.norm>  (1) 
0

>  <SCORE.heavy>  (1) 
13

>  <SCORE.norm>  (1) 
-0.0650238

>  <TETHERED ATOMS>  (1) 
2,4,10,9,11,13,3,7,6

>  <skeledock_score>  (1) 
48

$$$$
