F616
     RDKit          3D

 26 26  0  0  0  0  0  0  0  0999 V2000
  -18.4882   11.0699   24.4453 C   0  0  0  0  0  0  0  0  0  0  0  0
  -20.0860   11.7187   24.8927 S   0  0  0  0  0  0  0  0  0  0  0  0
  -21.0714   10.5891   25.0040 O   0  0  0  0  0  0  0  0  0  0  0  0
  -20.5441   12.6616   23.8162 O   0  0  0  0  0  0  0  0  0  0  0  0
  -20.0040   12.5824   26.3992 N   0  0  0  0  0  0  0  0  0  0  0  0
  -19.4516   13.9211   26.1817 C   0  0  0  0  0  0  0  0  0  0  0  0
  -19.1535   14.5839   27.5291 C   0  0  0  0  0  0  0  0  0  0  0  0
  -20.4245   15.0503   28.1896 C   0  0  0  0  0  0  0  0  0  0  0  0
  -21.2624   14.1281   28.8383 C   0  0  0  0  0  0  0  0  0  0  0  0
  -22.4576   14.5529   29.4261 C   0  0  0  0  0  0  0  0  0  0  0  0
  -22.8269   15.8988   29.3708 C   0  0  0  0  0  0  0  0  0  0  0  0
  -23.9935   16.3048   29.9298 F   0  0  0  0  0  0  0  0  0  0  0  0
  -21.9936   16.8256   28.7374 C   0  0  0  0  0  0  0  0  0  0  0  0
  -20.7953   16.4056   28.1503 C   0  0  0  0  0  0  0  0  0  0  0  0
  -17.7287   11.8761   24.5089 H   0  0  0  0  0  0  0  0  0  0  0  0
  -18.5245   10.6801   23.4071 H   0  0  0  0  0  0  0  0  0  0  0  0
  -18.2108   10.2444   25.1323 H   0  0  0  0  0  0  0  0  0  0  0  0
  -20.9868   12.6861   26.7429 H   0  0  0  0  0  0  0  0  0  0  0  0
  -18.5030   13.8514   25.6044 H   0  0  0  0  0  0  0  0  0  0  0  0
  -20.1757   14.5458   25.6129 H   0  0  0  0  0  0  0  0  0  0  0  0
  -18.4667   15.4427   27.3616 H   0  0  0  0  0  0  0  0  0  0  0  0
  -18.6320   13.8666   28.1997 H   0  0  0  0  0  0  0  0  0  0  0  0
  -20.9921   13.0803   28.8837 H   0  0  0  0  0  0  0  0  0  0  0  0
  -23.1005   13.8351   29.9193 H   0  0  0  0  0  0  0  0  0  0  0  0
  -22.2776   17.8692   28.6959 H   0  0  0  0  0  0  0  0  0  0  0  0
  -20.1658   17.1341   27.6546 H   0  0  0  0  0  0  0  0  0  0  0  0
  1  2  1  0
  2  3  2  0
  2  4  2  0
  2  5  1  0
  5  6  1  0
  6  7  1  0
  7  8  1  0
  8  9  2  0
  9 10  1  0
 10 11  2  0
 11 12  1  0
 11 13  1  0
 13 14  2  0
  8 14  1  0
  1 15  1  0
  1 16  1  0
  1 17  1  0
  5 18  1  0
  6 19  1  0
  6 20  1  0
  7 21  1  0
  7 22  1  0
  9 23  1  0
 10 24  1  0
 13 25  1  0
 14 26  1  0
M  END
>  <CHROM.1>  (1) 
79.16810818,-170.15936826,-75.46369181,77.65917753,-0.11647119,0.65991575
-0.37071825

>  <Name>  (1) 
F616

>  <RI>  (1) 
3.24738e+07

>  <Rbt.Current_Directory>  (1) 
/data/out

>  <Rbt.Executable>  (1) 
rbdock ($Id: //depot/dev/client3/rdock/2013.1/src/exe/rbdock.cxx#4 $)

>  <Rbt.Library>  (1) 
libRbt.so (2013.1, Build901 2013/11/27)

>  <Rbt.Parameter_File>  (1) 
/python_libraries/phenodiscovery/docking/templates/RDOCK_TETHER.conf

>  <Rbt.Receptor>  (1) 
/data/out/rdock-opt/grid/rdock-grid.prm

>  <SCORE>  (1) 
-5.05367

>  <SCORE.INTER>  (1) 
-6.23881

>  <SCORE.INTER.CONST>  (1) 
1

>  <SCORE.INTER.POLAR>  (1) 
-0.866768

>  <SCORE.INTER.REPUL>  (1) 
0

>  <SCORE.INTER.ROT>  (1) 
4

>  <SCORE.INTER.VDW>  (1) 
-12.6918

>  <SCORE.INTER.norm>  (1) 
-0.445629

>  <SCORE.INTRA>  (1) 
1.18513

>  <SCORE.INTRA.DIHEDRAL>  (1) 
1.43186

>  <SCORE.INTRA.DIHEDRAL.0>  (1) 
0.866164

>  <SCORE.INTRA.POLAR>  (1) 
0

>  <SCORE.INTRA.POLAR.0>  (1) 
0

>  <SCORE.INTRA.REPUL>  (1) 
0

>  <SCORE.INTRA.REPUL.0>  (1) 
0

>  <SCORE.INTRA.VDW>  (1) 
0.469202

>  <SCORE.INTRA.VDW.0>  (1) 
-0.846115

>  <SCORE.INTRA.norm>  (1) 
0.0846524

>  <SCORE.RESTR>  (1) 
0

>  <SCORE.RESTR.CAVITY>  (1) 
0

>  <SCORE.RESTR.norm>  (1) 
0

>  <SCORE.SYSTEM>  (1) 
0

>  <SCORE.SYSTEM.CONST>  (1) 
0

>  <SCORE.SYSTEM.DIHEDRAL>  (1) 
0

>  <SCORE.SYSTEM.norm>  (1) 
0

>  <SCORE.heavy>  (1) 
14

>  <SCORE.norm>  (1) 
-0.360977

>  <TETHERED ATOMS>  (1) 
6,7,8,9,10,11,12

>  <skeledock_score>  (1) 
30

$$$$
