F389
     RDKit          3D

 18 18  0  0  0  0  0  0  0  0999 V2000
  -18.7644   14.1946   24.6844 C   0  0  0  0  0  0  0  0  0  0  0  0
  -19.8303   13.4341   25.4661 C   0  0  0  0  0  0  0  0  0  0  0  0
  -20.0790   14.0566   26.7256 O   0  0  0  0  0  0  0  0  0  0  0  0
  -19.1522   14.0734   27.7743 C   0  0  0  0  0  0  0  0  0  0  0  0
  -18.0541   13.4615   27.6708 O   0  0  0  0  0  0  0  0  0  0  0  0
  -19.4616   14.8087   29.0067 C   0  0  0  0  0  0  0  0  0  0  0  0
  -20.6269   15.4873   29.3107 C   0  0  0  0  0  0  0  0  0  0  0  0
  -20.5192   16.0131   30.5468 N   0  0  0  0  0  0  0  0  0  0  0  0
  -19.3277   15.6870   31.0238 N   0  0  0  0  0  0  0  0  0  0  0  0
  -18.6578   14.9547   30.1163 C   0  0  0  0  0  0  0  0  0  0  0  0
  -19.0739   15.2531   24.5537 H   0  0  0  0  0  0  0  0  0  0  0  0
  -18.6344   13.7316   23.6836 H   0  0  0  0  0  0  0  0  0  0  0  0
  -17.7927   14.1628   25.2195 H   0  0  0  0  0  0  0  0  0  0  0  0
  -19.5235   12.3756   25.6118 H   0  0  0  0  0  0  0  0  0  0  0  0
  -20.7721   13.4414   24.8780 H   0  0  0  0  0  0  0  0  0  0  0  0
  -21.4985   15.5897   28.6778 H   0  0  0  0  0  0  0  0  0  0  0  0
  -18.9775   15.9638   31.9673 H   0  0  0  0  0  0  0  0  0  0  0  0
  -17.6613   14.5567   30.2574 H   0  0  0  0  0  0  0  0  0  0  0  0
  1  2  1  0
  2  3  1  0
  3  4  1  0
  4  5  2  0
  4  6  1  0
  6  7  1  0
  7  8  2  0
  8  9  1  0
  9 10  1  0
  6 10  2  0
  1 11  1  0
  1 12  1  0
  1 13  1  0
  2 14  1  0
  2 15  1  0
  7 16  1  0
  9 17  1  0
 10 18  1  0
M  END
>  <CHROM.1>  (1) 
-68.83857155,-3.80382389,2.58182851,-1.50758052,-0.24940133,1.24776834

>  <Name>  (1) 
F389

>  <RI>  (1) 
1.60079e+07

>  <Rbt.Current_Directory>  (1) 
/data/out

>  <Rbt.Executable>  (1) 
rbdock ($Id: //depot/dev/client3/rdock/2013.1/src/exe/rbdock.cxx#4 $)

>  <Rbt.Library>  (1) 
libRbt.so (2013.1, Build901 2013/11/27)

>  <Rbt.Parameter_File>  (1) 
/python_libraries/phenodiscovery/docking/templates/RDOCK_TETHER.conf

>  <Rbt.Receptor>  (1) 
/data/out/rdock-opt/grid/rdock-grid.prm

>  <SCORE>  (1) 
2.94274

>  <SCORE.INTER>  (1) 
3.08318

>  <SCORE.INTER.CONST>  (1) 
1

>  <SCORE.INTER.POLAR>  (1) 
0

>  <SCORE.INTER.REPUL>  (1) 
0

>  <SCORE.INTER.ROT>  (1) 
3

>  <SCORE.INTER.VDW>  (1) 
-5.31682

>  <SCORE.INTER.norm>  (1) 
0.308318

>  <SCORE.INTRA>  (1) 
-0.140436

>  <SCORE.INTRA.DIHEDRAL>  (1) 
-0.459766

>  <SCORE.INTRA.DIHEDRAL.0>  (1) 
0.866798

>  <SCORE.INTRA.POLAR>  (1) 
0

>  <SCORE.INTRA.POLAR.0>  (1) 
0

>  <SCORE.INTRA.REPUL>  (1) 
0

>  <SCORE.INTRA.REPUL.0>  (1) 
0

>  <SCORE.INTRA.VDW>  (1) 
0.0894468

>  <SCORE.INTRA.VDW.0>  (1) 
-1.10273

>  <SCORE.INTRA.norm>  (1) 
-0.0140436

>  <SCORE.RESTR>  (1) 
0

>  <SCORE.RESTR.CAVITY>  (1) 
0

>  <SCORE.RESTR.norm>  (1) 
0

>  <SCORE.SYSTEM>  (1) 
0

>  <SCORE.SYSTEM.CONST>  (1) 
0

>  <SCORE.SYSTEM.DIHEDRAL>  (1) 
0

>  <SCORE.SYSTEM.norm>  (1) 
0

>  <SCORE.heavy>  (1) 
10

>  <SCORE.norm>  (1) 
0.294274

>  <TETHERED ATOMS>  (1) 
1,2,3,4,6,10,9,8,7

>  <skeledock_score>  (1) 
47

$$$$
