F503
     RDKit          3D

 29 30  0  0  0  0  0  0  0  0999 V2000
  -17.8098   17.0575   26.3488 C   0  0  0  0  0  0  0  0  0  0  0  0
  -18.8842   16.0700   26.3290 N   0  0  0  0  0  0  0  0  0  0  0  0
  -18.6791   14.6900   25.9966 C   0  0  0  0  0  0  0  0  0  0  0  0
  -17.5346   14.2691   25.6800 O   0  0  0  0  0  0  0  0  0  0  0  0
  -19.8333   13.7308   26.0440 C   0  0  0  0  0  0  0  0  0  0  0  0
  -21.0111   14.0206   26.9906 C   0  0  0  0  0  0  0  0  0  0  0  0
  -20.5513   14.6082   28.3034 C   0  0  0  0  0  0  0  0  0  0  0  0
  -21.1638   15.7717   28.8021 C   0  0  0  0  0  0  0  0  0  0  0  0
  -20.7069   16.3610   29.9847 C   0  0  0  0  0  0  0  0  0  0  0  0
  -19.6330   15.7987   30.6778 C   0  0  0  0  0  0  0  0  0  0  0  0
  -19.0192   14.6409   30.1944 C   0  0  0  0  0  0  0  0  0  0  0  0
  -19.4736   14.0428   29.0140 C   0  0  0  0  0  0  0  0  0  0  0  0
  -18.8572   12.9193   28.5669 F   0  0  0  0  0  0  0  0  0  0  0  0
  -20.2403   13.2038   24.6715 C   0  0  0  0  0  0  0  0  0  0  0  0
  -19.5578   12.2781   25.6684 C   0  0  0  0  0  0  0  0  0  0  0  0
  -18.0427   17.8686   25.6280 H   0  0  0  0  0  0  0  0  0  0  0  0
  -17.7288   17.4917   27.3670 H   0  0  0  0  0  0  0  0  0  0  0  0
  -16.8327   16.6078   26.0754 H   0  0  0  0  0  0  0  0  0  0  0  0
  -19.8470   16.3916   26.5760 H   0  0  0  0  0  0  0  0  0  0  0  0
  -21.5881   13.0941   27.2055 H   0  0  0  0  0  0  0  0  0  0  0  0
  -21.7096   14.7086   26.4690 H   0  0  0  0  0  0  0  0  0  0  0  0
  -21.9855   16.2308   28.2676 H   0  0  0  0  0  0  0  0  0  0  0  0
  -21.1816   17.2584   30.3598 H   0  0  0  0  0  0  0  0  0  0  0  0
  -19.2783   16.2583   31.5913 H   0  0  0  0  0  0  0  0  0  0  0  0
  -18.1890   14.2061   30.7361 H   0  0  0  0  0  0  0  0  0  0  0  0
  -19.5855   13.4871   23.8190 H   0  0  0  0  0  0  0  0  0  0  0  0
  -21.3188   12.9770   24.5291 H   0  0  0  0  0  0  0  0  0  0  0  0
  -18.5089   12.0326   25.3966 H   0  0  0  0  0  0  0  0  0  0  0  0
  -20.2411   11.5223   26.1104 H   0  0  0  0  0  0  0  0  0  0  0  0
  1  2  1  0
  2  3  1  0
  3  4  2  0
  3  5  1  0
  5  6  1  0
  6  7  1  0
  7  8  2  0
  8  9  1  0
  9 10  2  0
 10 11  1  0
 11 12  2  0
 12 13  1  0
  5 14  1  0
 14 15  1  0
 15  5  1  0
  7 12  1  0
  1 16  1  0
  1 17  1  0
  1 18  1  0
  2 19  1  0
  6 20  1  0
  6 21  1  0
  8 22  1  0
  9 23  1  0
 10 24  1  0
 11 25  1  0
 14 26  1  0
 14 27  1  0
 15 28  1  0
 15 29  1  0
M  END
>  <CHROM.1>  (1) 
-26.83486395,-37.96221692,130.37350562,1.23485368,0.07636460,-1.87598594

>  <Name>  (1) 
F503

>  <RI>  (1) 
4.15507e+07

>  <Rbt.Current_Directory>  (1) 
/data/out

>  <Rbt.Executable>  (1) 
rbdock ($Id: //depot/dev/client3/rdock/2013.1/src/exe/rbdock.cxx#4 $)

>  <Rbt.Library>  (1) 
libRbt.so (2013.1, Build901 2013/11/27)

>  <Rbt.Parameter_File>  (1) 
/python_libraries/phenodiscovery/docking/templates/RDOCK_TETHER.conf

>  <Rbt.Receptor>  (1) 
/data/out/rdock-opt/grid/rdock-grid.prm

>  <SCORE>  (1) 
1.01461

>  <SCORE.INTER>  (1) 
-0.0214829

>  <SCORE.INTER.CONST>  (1) 
1

>  <SCORE.INTER.POLAR>  (1) 
0

>  <SCORE.INTER.REPUL>  (1) 
0

>  <SCORE.INTER.ROT>  (1) 
3

>  <SCORE.INTER.VDW>  (1) 
-8.42148

>  <SCORE.INTER.norm>  (1) 
-0.00143219

>  <SCORE.INTRA>  (1) 
1.03609

>  <SCORE.INTRA.DIHEDRAL>  (1) 
1.81356

>  <SCORE.INTRA.DIHEDRAL.0>  (1) 
3.58337

>  <SCORE.INTRA.POLAR>  (1) 
0

>  <SCORE.INTRA.POLAR.0>  (1) 
0

>  <SCORE.INTRA.REPUL>  (1) 
0

>  <SCORE.INTRA.REPUL.0>  (1) 
0

>  <SCORE.INTRA.VDW>  (1) 
0.129316

>  <SCORE.INTRA.VDW.0>  (1) 
-2.42854

>  <SCORE.INTRA.norm>  (1) 
0.0690729

>  <SCORE.RESTR>  (1) 
0

>  <SCORE.RESTR.CAVITY>  (1) 
0

>  <SCORE.RESTR.norm>  (1) 
0

>  <SCORE.SYSTEM>  (1) 
0

>  <SCORE.SYSTEM.CONST>  (1) 
0

>  <SCORE.SYSTEM.DIHEDRAL>  (1) 
0

>  <SCORE.SYSTEM.norm>  (1) 
0

>  <SCORE.heavy>  (1) 
15

>  <SCORE.norm>  (1) 
0.0676407

>  <TETHERED ATOMS>  (1) 
6,7,12,11,10,8,9,3,5,4

>  <skeledock_score>  (1) 
55

$$$$
