F710
     RDKit          3D

 30 31  0  0  0  0  0  0  0  0999 V2000
  -17.0697   12.9364   23.4856 N   0  0  0  0  0  0  0  0  0  0  0  0
  -18.4133   12.5806   23.8195 C   0  0  0  0  0  0  0  0  0  0  0  0
  -18.9605   11.6204   23.2131 O   0  0  0  0  0  0  0  0  0  0  0  0
  -19.1312   13.2733   24.8581 N   0  0  0  0  0  0  0  0  0  0  0  0
  -18.9379   14.7091   25.0956 C   0  0  0  0  0  0  0  0  0  0  0  0
  -18.7650   14.9582   26.5943 C   0  0  0  0  0  0  0  0  0  0  0  0
  -19.7903   14.2503   27.3788 N   0  0  0  0  0  0  0  0  0  0  0  0
  -20.8030   13.4289   26.6998 C   0  0  0  0  0  0  0  0  0  0  0  0
  -20.1438   12.5409   25.6346 C   0  0  0  0  0  0  0  0  0  0  0  0
  -19.8743   14.4785   28.7990 C   0  0  0  0  0  0  0  0  0  0  0  0
  -21.0263   15.0577   29.3604 C   0  0  0  0  0  0  0  0  0  0  0  0
  -21.1096   15.2728   30.7390 C   0  0  0  0  0  0  0  0  0  0  0  0
  -20.0475   14.9092   31.5706 C   0  0  0  0  0  0  0  0  0  0  0  0
  -20.1311   15.1169   32.9077 F   0  0  0  0  0  0  0  0  0  0  0  0
  -18.8984   14.3321   31.0233 C   0  0  0  0  0  0  0  0  0  0  0  0
  -18.8093   14.1188   29.6441 C   0  0  0  0  0  0  0  0  0  0  0  0
  -16.5895   12.4669   22.6861 H   0  0  0  0  0  0  0  0  0  0  0  0
  -16.5103   13.5765   24.0904 H   0  0  0  0  0  0  0  0  0  0  0  0
  -19.8327   15.2589   24.7311 H   0  0  0  0  0  0  0  0  0  0  0  0
  -18.0636   15.1136   24.5466 H   0  0  0  0  0  0  0  0  0  0  0  0
  -17.7562   14.6026   26.8924 H   0  0  0  0  0  0  0  0  0  0  0  0
  -18.8295   16.0502   26.7921 H   0  0  0  0  0  0  0  0  0  0  0  0
  -21.5514   14.0963   26.2202 H   0  0  0  0  0  0  0  0  0  0  0  0
  -21.3357   12.7773   27.4269 H   0  0  0  0  0  0  0  0  0  0  0  0
  -20.9296   12.1463   24.9547 H   0  0  0  0  0  0  0  0  0  0  0  0
  -19.6540   11.6813   26.1418 H   0  0  0  0  0  0  0  0  0  0  0  0
  -21.8539   15.3599   28.7333 H   0  0  0  0  0  0  0  0  0  0  0  0
  -21.9983   15.7235   31.1619 H   0  0  0  0  0  0  0  0  0  0  0  0
  -18.0760   14.0482   31.6672 H   0  0  0  0  0  0  0  0  0  0  0  0
  -17.9172   13.6600   29.2371 H   0  0  0  0  0  0  0  0  0  0  0  0
  1  2  1  0
  2  3  2  0
  2  4  1  0
  4  5  1  0
  5  6  1  0
  6  7  1  0
  7  8  1  0
  8  9  1  0
  7 10  1  0
 10 11  2  0
 11 12  1  0
 12 13  2  0
 13 14  1  0
 13 15  1  0
 15 16  2  0
  9  4  1  0
 10 16  1  0
  1 17  1  0
  1 18  1  0
  5 19  1  0
  5 20  1  0
  6 21  1  0
  6 22  1  0
  8 23  1  0
  8 24  1  0
  9 25  1  0
  9 26  1  0
 11 27  1  0
 12 28  1  0
 15 29  1  0
 16 30  1  0
M  END
>  <CHROM.1>  (1) 
116.64394917,1.76753422,-0.39154083,1.51745304

>  <Name>  (1) 
F710

>  <RI>  (1) 
2.8729e+07

>  <Rbt.Current_Directory>  (1) 
/data/out

>  <Rbt.Executable>  (1) 
rbdock ($Id: //depot/dev/client3/rdock/2013.1/src/exe/rbdock.cxx#4 $)

>  <Rbt.Library>  (1) 
libRbt.so (2013.1, Build901 2013/11/27)

>  <Rbt.Parameter_File>  (1) 
/python_libraries/phenodiscovery/docking/templates/RDOCK_TETHER.conf

>  <Rbt.Receptor>  (1) 
/data/out/rdock-opt/grid/rdock-grid.prm

>  <SCORE>  (1) 
-3.00777

>  <SCORE.INTER>  (1) 
-3.53227

>  <SCORE.INTER.CONST>  (1) 
1

>  <SCORE.INTER.POLAR>  (1) 
0

>  <SCORE.INTER.REPUL>  (1) 
0

>  <SCORE.INTER.ROT>  (1) 
1

>  <SCORE.INTER.VDW>  (1) 
-9.93227

>  <SCORE.INTER.norm>  (1) 
-0.220767

>  <SCORE.INTRA>  (1) 
0.524506

>  <SCORE.INTRA.DIHEDRAL>  (1) 
3.00413

>  <SCORE.INTRA.DIHEDRAL.0>  (1) 
6.65264

>  <SCORE.INTRA.POLAR>  (1) 
0

>  <SCORE.INTRA.POLAR.0>  (1) 
0

>  <SCORE.INTRA.REPUL>  (1) 
0

>  <SCORE.INTRA.REPUL.0>  (1) 
0

>  <SCORE.INTRA.VDW>  (1) 
-0.977559

>  <SCORE.INTRA.VDW.0>  (1) 
-0.466464

>  <SCORE.INTRA.norm>  (1) 
0.0327816

>  <SCORE.RESTR>  (1) 
0

>  <SCORE.RESTR.CAVITY>  (1) 
0

>  <SCORE.RESTR.norm>  (1) 
0

>  <SCORE.SYSTEM>  (1) 
0

>  <SCORE.SYSTEM.CONST>  (1) 
0

>  <SCORE.SYSTEM.DIHEDRAL>  (1) 
0

>  <SCORE.SYSTEM.norm>  (1) 
0

>  <SCORE.heavy>  (1) 
16

>  <SCORE.norm>  (1) 
-0.187985

>  <TETHERED ATOMS>  (1) 
10,11,12,13,15,16,4,5,6,7

>  <skeledock_score>  (1) 
32

$$$$
