F362
     RDKit          3D

 30 31  0  0  0  0  0  0  0  0999 V2000
  -19.6899   12.5003   25.6626 C   0  0  0  0  0  0  0  0  0  0  0  0
  -20.3650   13.8674   25.7288 C   0  0  0  0  0  0  0  0  0  0  0  0
  -19.6588   14.7595   26.6594 N   0  0  0  0  0  0  0  0  0  0  0  0
  -18.3116   15.2390   26.3244 C   0  0  0  0  0  0  0  0  0  0  0  0
  -18.1945   16.7369   26.5860 C   0  0  0  0  0  0  0  0  0  0  0  0
  -20.3107   15.2079   27.8640 C   0  0  0  0  0  0  0  0  0  0  0  0
  -21.5629   15.8466   27.8127 C   0  0  0  0  0  0  0  0  0  0  0  0
  -22.2179   16.1682   29.0226 C   0  0  0  0  0  0  0  0  0  0  0  0
  -23.5642   16.8181   28.9969 C   0  0  0  0  0  0  0  0  0  0  0  0
  -21.6423   15.8500   30.2206 N   0  0  0  0  0  0  0  0  0  0  0  0
  -20.4345   15.2383   30.2254 C   0  0  0  0  0  0  0  0  0  0  0  0
  -19.7452   14.8729   31.3189 N   0  0  0  0  0  0  0  0  0  0  0  0
  -18.6375   14.3234   30.7535 C   0  0  0  0  0  0  0  0  0  0  0  0
  -18.6570   14.3551   29.3988 N   0  0  0  0  0  0  0  0  0  0  0  0
  -19.8014   14.9326   29.0935 N   0  0  0  0  0  0  0  0  0  0  0  0
  -19.6088   12.0660   26.6816 H   0  0  0  0  0  0  0  0  0  0  0  0
  -18.6764   12.5854   25.2171 H   0  0  0  0  0  0  0  0  0  0  0  0
  -20.2944   11.8173   25.0294 H   0  0  0  0  0  0  0  0  0  0  0  0
  -20.3984   14.3168   24.7157 H   0  0  0  0  0  0  0  0  0  0  0  0
  -21.4180   13.7205   26.0545 H   0  0  0  0  0  0  0  0  0  0  0  0
  -17.5563   14.6920   26.9291 H   0  0  0  0  0  0  0  0  0  0  0  0
  -18.0807   15.0533   25.2530 H   0  0  0  0  0  0  0  0  0  0  0  0
  -18.9540   17.2862   25.9901 H   0  0  0  0  0  0  0  0  0  0  0  0
  -17.1836   17.0892   26.2911 H   0  0  0  0  0  0  0  0  0  0  0  0
  -18.3468   16.9577   27.6631 H   0  0  0  0  0  0  0  0  0  0  0  0
  -22.0350   16.0571   26.8609 H   0  0  0  0  0  0  0  0  0  0  0  0
  -23.8554   17.1508   30.0158 H   0  0  0  0  0  0  0  0  0  0  0  0
  -23.5451   17.7039   28.3274 H   0  0  0  0  0  0  0  0  0  0  0  0
  -24.3195   16.0944   28.6255 H   0  0  0  0  0  0  0  0  0  0  0  0
  -17.8219   13.9043   31.3272 H   0  0  0  0  0  0  0  0  0  0  0  0
  1  2  1  0
  2  3  1  0
  3  4  1  0
  4  5  1  0
  3  6  1  0
  6  7  2  0
  7  8  1  0
  8  9  1  0
  8 10  2  0
 10 11  1  0
 11 12  2  0
 12 13  1  0
 13 14  2  0
 14 15  1  0
 15  6  1  0
 15 11  1  0
  1 16  1  0
  1 17  1  0
  1 18  1  0
  2 19  1  0
  2 20  1  0
  4 21  1  0
  4 22  1  0
  5 23  1  0
  5 24  1  0
  5 25  1  0
  7 26  1  0
  9 27  1  0
  9 28  1  0
  9 29  1  0
 13 30  1  0
M  END
>  <CHROM.1>  (1) 
68.26043638,134.23846286,-54.41045876,-1.33693996,-0.32390232,1.45515364

>  <Name>  (1) 
F362

>  <RI>  (1) 
3.59707e+07

>  <Rbt.Current_Directory>  (1) 
/data/out

>  <Rbt.Executable>  (1) 
rbdock ($Id: //depot/dev/client3/rdock/2013.1/src/exe/rbdock.cxx#4 $)

>  <Rbt.Library>  (1) 
libRbt.so (2013.1, Build901 2013/11/27)

>  <Rbt.Parameter_File>  (1) 
/python_libraries/phenodiscovery/docking/templates/RDOCK_TETHER.conf

>  <Rbt.Receptor>  (1) 
/data/out/rdock-opt/grid/rdock-grid.prm

>  <SCORE>  (1) 
1.03144

>  <SCORE.INTER>  (1) 
0.733701

>  <SCORE.INTER.CONST>  (1) 
1

>  <SCORE.INTER.POLAR>  (1) 
0

>  <SCORE.INTER.REPUL>  (1) 
0

>  <SCORE.INTER.ROT>  (1) 
3

>  <SCORE.INTER.VDW>  (1) 
-7.6663

>  <SCORE.INTER.norm>  (1) 
0.0489134

>  <SCORE.INTRA>  (1) 
0.297743

>  <SCORE.INTRA.DIHEDRAL>  (1) 
1.08168

>  <SCORE.INTRA.DIHEDRAL.0>  (1) 
12.8501

>  <SCORE.INTRA.POLAR>  (1) 
0

>  <SCORE.INTRA.POLAR.0>  (1) 
0

>  <SCORE.INTRA.REPUL>  (1) 
0

>  <SCORE.INTRA.REPUL.0>  (1) 
0

>  <SCORE.INTRA.VDW>  (1) 
-0.243097

>  <SCORE.INTRA.VDW.0>  (1) 
-1.89776

>  <SCORE.INTRA.norm>  (1) 
0.0198495

>  <SCORE.RESTR>  (1) 
0

>  <SCORE.RESTR.CAVITY>  (1) 
0

>  <SCORE.RESTR.norm>  (1) 
0

>  <SCORE.SYSTEM>  (1) 
0

>  <SCORE.SYSTEM.CONST>  (1) 
0

>  <SCORE.SYSTEM.DIHEDRAL>  (1) 
0

>  <SCORE.SYSTEM.norm>  (1) 
0

>  <SCORE.heavy>  (1) 
15

>  <SCORE.norm>  (1) 
0.068763

>  <TETHERED ATOMS>  (1) 
1,2,3,4,5,8,10,11,12,13,14

>  <skeledock_score>  (1) 
48

$$$$
