F366
     RDKit          3D

 22 22  0  0  0  0  0  0  0  0999 V2000
  -18.1159   10.8825   23.9181 C   0  0  0  0  0  0  0  0  0  0  0  0
  -17.3888   12.2001   24.1586 C   0  0  0  0  0  0  0  0  0  0  0  0
  -18.1635   13.0529   25.0560 N   0  0  0  0  0  0  0  0  0  0  0  0
  -18.2976   12.8880   26.3857 C   0  0  0  0  0  0  0  0  0  0  0  0
  -19.1195   13.8896   26.8548 C   0  0  0  0  0  0  0  0  0  0  0  0
  -19.6287   14.0603   28.2538 C   0  0  0  0  0  0  0  0  0  0  0  0
  -21.1572   14.0469   28.2980 C   0  0  0  0  0  0  0  0  0  0  0  0
  -21.5987   14.1256   29.6251 O   0  0  0  0  0  0  0  0  0  0  0  0
  -19.4651   14.6309   25.7394 C   0  0  0  0  0  0  0  0  0  0  0  0
  -18.8684   14.1002   24.6539 N   0  0  0  0  0  0  0  0  0  0  0  0
  -18.2393   10.3313   24.8743 H   0  0  0  0  0  0  0  0  0  0  0  0
  -19.1159   11.0754   23.4748 H   0  0  0  0  0  0  0  0  0  0  0  0
  -17.5273   10.2539   23.2171 H   0  0  0  0  0  0  0  0  0  0  0  0
  -17.2323   12.7100   23.1826 H   0  0  0  0  0  0  0  0  0  0  0  0
  -16.3928   12.0003   24.6088 H   0  0  0  0  0  0  0  0  0  0  0  0
  -17.8473   12.0916   26.9647 H   0  0  0  0  0  0  0  0  0  0  0  0
  -19.2319   13.2335   28.8812 H   0  0  0  0  0  0  0  0  0  0  0  0
  -19.2580   15.0211   28.6728 H   0  0  0  0  0  0  0  0  0  0  0  0
  -21.5382   13.0993   27.8614 H   0  0  0  0  0  0  0  0  0  0  0  0
  -21.5680   14.8925   27.6998 H   0  0  0  0  0  0  0  0  0  0  0  0
  -21.2634   13.3118   30.0848 H   0  0  0  0  0  0  0  0  0  0  0  0
  -20.1259   15.4871   25.7143 H   0  0  0  0  0  0  0  0  0  0  0  0
  1  2  1  0
  2  3  1  0
  3  4  1  0
  4  5  2  0
  5  6  1  0
  6  7  1  0
  7  8  1  0
  5  9  1  0
  9 10  2  0
 10  3  1  0
  1 11  1  0
  1 12  1  0
  1 13  1  0
  2 14  1  0
  2 15  1  0
  4 16  1  0
  6 17  1  0
  6 18  1  0
  7 19  1  0
  7 20  1  0
  8 21  1  0
  9 22  1  0
M  END
>  <CHROM.1>  (1) 
74.49596118,-120.71194664,176.37759239,-62.57220029,-0.79337180,-0.64761162
1.97386659

>  <Name>  (1) 
F366

>  <RI>  (1) 
1.95172e+07

>  <Rbt.Current_Directory>  (1) 
/data/out

>  <Rbt.Executable>  (1) 
rbdock ($Id: //depot/dev/client3/rdock/2013.1/src/exe/rbdock.cxx#4 $)

>  <Rbt.Library>  (1) 
libRbt.so (2013.1, Build901 2013/11/27)

>  <Rbt.Parameter_File>  (1) 
/python_libraries/phenodiscovery/docking/templates/RDOCK_TETHER.conf

>  <Rbt.Receptor>  (1) 
/data/out/rdock-opt/grid/rdock-grid.prm

>  <SCORE>  (1) 
-4.53062

>  <SCORE.INTER>  (1) 
-3.822

>  <SCORE.INTER.CONST>  (1) 
1

>  <SCORE.INTER.POLAR>  (1) 
-0.489898

>  <SCORE.INTER.REPUL>  (1) 
0

>  <SCORE.INTER.ROT>  (1) 
3

>  <SCORE.INTER.VDW>  (1) 
-10.5563

>  <SCORE.INTER.norm>  (1) 
-0.3822

>  <SCORE.INTRA>  (1) 
-0.708622

>  <SCORE.INTRA.DIHEDRAL>  (1) 
-1.14259

>  <SCORE.INTRA.DIHEDRAL.0>  (1) 
4.99205

>  <SCORE.INTRA.POLAR>  (1) 
0

>  <SCORE.INTRA.POLAR.0>  (1) 
0

>  <SCORE.INTRA.REPUL>  (1) 
0

>  <SCORE.INTRA.REPUL.0>  (1) 
0

>  <SCORE.INTRA.VDW>  (1) 
-0.137326

>  <SCORE.INTRA.VDW.0>  (1) 
-0.989808

>  <SCORE.INTRA.norm>  (1) 
-0.0708622

>  <SCORE.RESTR>  (1) 
0

>  <SCORE.RESTR.CAVITY>  (1) 
0

>  <SCORE.RESTR.norm>  (1) 
0

>  <SCORE.SYSTEM>  (1) 
0

>  <SCORE.SYSTEM.CONST>  (1) 
0

>  <SCORE.SYSTEM.DIHEDRAL>  (1) 
0

>  <SCORE.SYSTEM.norm>  (1) 
0

>  <SCORE.heavy>  (1) 
10

>  <SCORE.norm>  (1) 
-0.453062

>  <TETHERED ATOMS>  (1) 
4,5,6,7,8,9,3,10

>  <skeledock_score>  (1) 
32

$$$$
