F501
     RDKit          3D

 24 25  0  0  0  0  0  0  0  0999 V2000
  -21.2174   17.1830   26.4529 C   0  0  0  0  0  0  0  0  0  0  0  0
  -21.3228   17.1447   27.9059 N   0  0  0  0  0  0  0  0  0  0  0  0
  -22.0207   18.0169   28.6210 N   0  0  0  0  0  0  0  0  0  0  0  0
  -21.9048   17.7594   29.9196 N   0  0  0  0  0  0  0  0  0  0  0  0
  -21.0953   16.6876   30.0200 C   0  0  0  0  0  0  0  0  0  0  0  0
  -20.6580   16.0080   31.2764 C   0  0  0  0  0  0  0  0  0  0  0  0
  -19.4058   15.1515   31.0003 C   0  0  0  0  0  0  0  0  0  0  0  0
  -19.5747   14.2819   29.7226 C   0  0  0  0  0  0  0  0  0  0  0  0
  -19.8059   15.1532   28.4599 C   0  0  0  0  0  0  0  0  0  0  0  0
  -20.7447   16.2845   28.7620 C   0  0  0  0  0  0  0  0  0  0  0  0
  -18.4063   13.3552   29.5003 C   0  0  0  0  0  0  0  0  0  0  0  0
  -17.6648   13.4718   28.4865 O   0  0  0  0  0  0  0  0  0  0  0  0
  -18.1392   12.3589   30.4346 O   0  0  0  0  0  0  0  0  0  0  0  0
  -20.7918   18.1586   26.1379 H   0  0  0  0  0  0  0  0  0  0  0  0
  -20.5605   16.3707   26.0785 H   0  0  0  0  0  0  0  0  0  0  0  0
  -22.2259   17.0640   26.0050 H   0  0  0  0  0  0  0  0  0  0  0  0
  -21.4831   15.3586   31.6391 H   0  0  0  0  0  0  0  0  0  0  0  0
  -20.4302   16.7661   32.0556 H   0  0  0  0  0  0  0  0  0  0  0  0
  -19.2239   14.4981   31.8815 H   0  0  0  0  0  0  0  0  0  0  0  0
  -18.5253   15.8216   30.8804 H   0  0  0  0  0  0  0  0  0  0  0  0
  -20.4737   13.6428   29.8712 H   0  0  0  0  0  0  0  0  0  0  0  0
  -18.8453   15.5819   28.1001 H   0  0  0  0  0  0  0  0  0  0  0  0
  -20.2396   14.5208   27.6557 H   0  0  0  0  0  0  0  0  0  0  0  0
  -18.7583   12.2046   31.2214 H   0  0  0  0  0  0  0  0  0  0  0  0
  1  2  1  0
  2  3  1  0
  3  4  2  0
  4  5  1  0
  5  6  1  0
  6  7  1  0
  7  8  1  0
  8  9  1  0
  9 10  1  0
  8 11  1  0
 11 12  2  0
 11 13  1  0
 10  2  1  0
  5 10  2  0
  1 14  1  0
  1 15  1  0
  1 16  1  0
  6 17  1  0
  6 18  1  0
  7 19  1  0
  7 20  1  0
  8 21  1  0
  9 22  1  0
  9 23  1  0
 13 24  1  0
M  END
>  <CHROM.1>  (1) 
-116.08926629,4.67458461,2.74658428,0.82765917,-1.46195303

>  <Name>  (1) 
F501

>  <RI>  (1) 
2.88203e+07

>  <Rbt.Current_Directory>  (1) 
/data/out

>  <Rbt.Executable>  (1) 
rbdock ($Id: //depot/dev/client3/rdock/2013.1/src/exe/rbdock.cxx#4 $)

>  <Rbt.Library>  (1) 
libRbt.so (2013.1, Build901 2013/11/27)

>  <Rbt.Parameter_File>  (1) 
/python_libraries/phenodiscovery/docking/templates/RDOCK_TETHER.conf

>  <Rbt.Receptor>  (1) 
/data/out/rdock-opt/grid/rdock-grid.prm

>  <SCORE>  (1) 
-0.447269

>  <SCORE.INTER>  (1) 
-0.917389

>  <SCORE.INTER.CONST>  (1) 
1

>  <SCORE.INTER.POLAR>  (1) 
-0.189875

>  <SCORE.INTER.REPUL>  (1) 
0

>  <SCORE.INTER.ROT>  (1) 
1

>  <SCORE.INTER.VDW>  (1) 
-6.67181

>  <SCORE.INTER.norm>  (1) 
-0.0705684

>  <SCORE.INTRA>  (1) 
0.47012

>  <SCORE.INTRA.DIHEDRAL>  (1) 
0.210751

>  <SCORE.INTRA.DIHEDRAL.0>  (1) 
0.587079

>  <SCORE.INTRA.POLAR>  (1) 
0

>  <SCORE.INTRA.POLAR.0>  (1) 
0

>  <SCORE.INTRA.REPUL>  (1) 
0

>  <SCORE.INTRA.REPUL.0>  (1) 
0

>  <SCORE.INTRA.VDW>  (1) 
0.364744

>  <SCORE.INTRA.VDW.0>  (1) 
-0.681421

>  <SCORE.INTRA.norm>  (1) 
0.0361631

>  <SCORE.RESTR>  (1) 
0

>  <SCORE.RESTR.CAVITY>  (1) 
0

>  <SCORE.RESTR.norm>  (1) 
0

>  <SCORE.SYSTEM>  (1) 
0

>  <SCORE.SYSTEM.CONST>  (1) 
0

>  <SCORE.SYSTEM.DIHEDRAL>  (1) 
0

>  <SCORE.SYSTEM.norm>  (1) 
0

>  <SCORE.heavy>  (1) 
13

>  <SCORE.norm>  (1) 
-0.0344053

>  <TETHERED ATOMS>  (1) 
5,6,7,8,1,2,10,9,11,12

>  <skeledock_score>  (1) 
48

$$$$
