F369
     RDKit          3D

 32 33  0  0  0  0  0  0  0  0999 V2000
  -25.4087   12.8621   30.9462 C   0  0  0  0  0  0  0  0  0  0  0  0
  -24.6724   12.2482   29.7615 C   0  0  0  0  0  0  0  0  0  0  0  0
  -23.3670   12.8801   29.5895 N   0  0  0  0  0  0  0  0  0  0  0  0
  -23.1470   14.1268   29.1327 C   0  0  0  0  0  0  0  0  0  0  0  0
  -21.7890   14.3344   29.1467 C   0  0  0  0  0  0  0  0  0  0  0  0
  -21.1178   15.5275   28.7271 N   0  0  0  0  0  0  0  0  0  0  0  0
  -21.8017   16.6763   28.2087 C   0  0  0  0  0  0  0  0  0  0  0  0
  -23.0129   16.5936   27.8666 O   0  0  0  0  0  0  0  0  0  0  0  0
  -21.0486   17.9654   27.9957 C   0  0  0  0  0  0  0  0  0  0  0  0
  -21.6943   18.8696   26.9532 C   0  0  0  0  0  0  0  0  0  0  0  0
  -20.5621   19.7419   26.4264 C   0  0  0  0  0  0  0  0  0  0  0  0
  -19.2576   19.0035   26.7306 C   0  0  0  0  0  0  0  0  0  0  0  0
  -19.6317   17.7337   27.4882 C   0  0  0  0  0  0  0  0  0  0  0  0
  -21.2252   13.1596   29.6067 C   0  0  0  0  0  0  0  0  0  0  0  0
  -22.2161   12.2868   29.8766 N   0  0  0  0  0  0  0  0  0  0  0  0
  -25.5859   13.9443   30.7701 H   0  0  0  0  0  0  0  0  0  0  0  0
  -24.8102   12.7352   31.8733 H   0  0  0  0  0  0  0  0  0  0  0  0
  -26.3885   12.3571   31.0793 H   0  0  0  0  0  0  0  0  0  0  0  0
  -24.5517   11.1567   29.9372 H   0  0  0  0  0  0  0  0  0  0  0  0
  -25.2729   12.3857   28.8368 H   0  0  0  0  0  0  0  0  0  0  0  0
  -23.9125   14.8274   28.8240 H   0  0  0  0  0  0  0  0  0  0  0  0
  -20.0730   15.5220   28.7172 H   0  0  0  0  0  0  0  0  0  0  0  0
  -20.9931   18.5289   28.9549 H   0  0  0  0  0  0  0  0  0  0  0  0
  -22.1122   18.2743   26.1109 H   0  0  0  0  0  0  0  0  0  0  0  0
  -22.5053   19.4847   27.4004 H   0  0  0  0  0  0  0  0  0  0  0  0
  -20.6764   19.9176   25.3345 H   0  0  0  0  0  0  0  0  0  0  0  0
  -20.5701   20.7236   26.9497 H   0  0  0  0  0  0  0  0  0  0  0  0
  -18.7175   18.7519   25.7917 H   0  0  0  0  0  0  0  0  0  0  0  0
  -18.5994   19.6414   27.3608 H   0  0  0  0  0  0  0  0  0  0  0  0
  -19.5996   16.8694   26.7873 H   0  0  0  0  0  0  0  0  0  0  0  0
  -18.9308   17.5433   28.3300 H   0  0  0  0  0  0  0  0  0  0  0  0
  -20.1725   12.9438   29.7290 H   0  0  0  0  0  0  0  0  0  0  0  0
  1  2  1  0
  2  3  1  0
  3  4  1  0
  4  5  2  0
  5  6  1  0
  6  7  1  0
  7  8  2  0
  7  9  1  0
  9 10  1  0
 10 11  1  0
 11 12  1  0
 12 13  1  0
  5 14  1  0
 14 15  2  0
 15  3  1  0
 13  9  1  0
  1 16  1  0
  1 17  1  0
  1 18  1  0
  2 19  1  0
  2 20  1  0
  4 21  1  0
  6 22  1  0
  9 23  1  0
 10 24  1  0
 10 25  1  0
 11 26  1  0
 11 27  1  0
 12 28  1  0
 12 29  1  0
 13 30  1  0
 13 31  1  0
 14 32  1  0
M  END
>  <CHROM.1>  (1) 
-71.94453054,-0.94113766,156.15287173,-1.49462457,0.11726330,2.72816392

>  <Name>  (1) 
F369

>  <RI>  (1) 
1.4562e+07

>  <Rbt.Current_Directory>  (1) 
/data/out

>  <Rbt.Executable>  (1) 
rbdock ($Id: //depot/dev/client3/rdock/2013.1/src/exe/rbdock.cxx#4 $)

>  <Rbt.Library>  (1) 
libRbt.so (2013.1, Build901 2013/11/27)

>  <Rbt.Parameter_File>  (1) 
/python_libraries/phenodiscovery/docking/templates/RDOCK_TETHER.conf

>  <Rbt.Receptor>  (1) 
/data/out/rdock-opt/grid/rdock-grid.prm

>  <SCORE>  (1) 
-0.332386

>  <SCORE.INTER>  (1) 
2.98526

>  <SCORE.INTER.CONST>  (1) 
1

>  <SCORE.INTER.POLAR>  (1) 
0

>  <SCORE.INTER.REPUL>  (1) 
0

>  <SCORE.INTER.ROT>  (1) 
3

>  <SCORE.INTER.VDW>  (1) 
-5.41474

>  <SCORE.INTER.norm>  (1) 
0.199017

>  <SCORE.INTRA>  (1) 
-3.31765

>  <SCORE.INTRA.DIHEDRAL>  (1) 
-11.0205

>  <SCORE.INTRA.DIHEDRAL.0>  (1) 
15.0275

>  <SCORE.INTRA.POLAR>  (1) 
0

>  <SCORE.INTRA.POLAR.0>  (1) 
0

>  <SCORE.INTRA.REPUL>  (1) 
0

>  <SCORE.INTRA.REPUL.0>  (1) 
0

>  <SCORE.INTRA.VDW>  (1) 
2.19261

>  <SCORE.INTRA.VDW.0>  (1) 
-1.76381

>  <SCORE.INTRA.norm>  (1) 
-0.221177

>  <SCORE.RESTR>  (1) 
0

>  <SCORE.RESTR.CAVITY>  (1) 
0

>  <SCORE.RESTR.norm>  (1) 
0

>  <SCORE.SYSTEM>  (1) 
0

>  <SCORE.SYSTEM.CONST>  (1) 
0

>  <SCORE.SYSTEM.DIHEDRAL>  (1) 
0

>  <SCORE.SYSTEM.norm>  (1) 
0

>  <SCORE.heavy>  (1) 
15

>  <SCORE.norm>  (1) 
-0.0221591

>  <TETHERED ATOMS>  (1) 
7,6,5,14,3,4,8

>  <skeledock_score>  (1) 
24

$$$$
