F374
     RDKit          3D

 18 18  0  0  0  0  0  0  0  0999 V2000
  -20.6051   12.9067   24.8027 C   0  0  0  0  0  0  0  0  0  0  0  0
  -20.1530   14.3625   24.8460 C   0  0  0  0  0  0  0  0  0  0  0  0
  -20.2212   14.8848   26.2098 N   0  0  0  0  0  0  0  0  0  0  0  0
  -19.2174   14.6026   27.1963 C   0  0  0  0  0  0  0  0  0  0  0  0
  -18.2552   13.8361   26.9190 O   0  0  0  0  0  0  0  0  0  0  0  0
  -19.2982   15.2044   28.5367 C   0  0  0  0  0  0  0  0  0  0  0  0
  -18.3826   15.0728   29.5590 C   0  0  0  0  0  0  0  0  0  0  0  0
  -18.8526   15.8024   30.5829 N   0  0  0  0  0  0  0  0  0  0  0  0
  -19.9965   16.3523   30.2078 N   0  0  0  0  0  0  0  0  0  0  0  0
  -20.2941   16.0060   28.9632 N   0  0  0  0  0  0  0  0  0  0  0  0
  -20.5023   12.5155   23.7686 H   0  0  0  0  0  0  0  0  0  0  0  0
  -19.9767   12.2929   25.4823 H   0  0  0  0  0  0  0  0  0  0  0  0
  -21.6679   12.8197   25.1107 H   0  0  0  0  0  0  0  0  0  0  0  0
  -19.1031   14.4180   24.4849 H   0  0  0  0  0  0  0  0  0  0  0  0
  -20.7808   14.9808   24.1686 H   0  0  0  0  0  0  0  0  0  0  0  0
  -21.0589   15.4482   26.4795 H   0  0  0  0  0  0  0  0  0  0  0  0
  -17.4604   14.5065   29.5620 H   0  0  0  0  0  0  0  0  0  0  0  0
  -18.4085   15.9278   31.5190 H   0  0  0  0  0  0  0  0  0  0  0  0
  1  2  1  0
  2  3  1  0
  3  4  1  0
  4  5  2  0
  4  6  1  0
  6  7  2  0
  7  8  1  0
  8  9  1  0
  9 10  2  0
 10  6  1  0
  1 11  1  0
  1 12  1  0
  1 13  1  0
  2 14  1  0
  2 15  1  0
  3 16  1  0
  7 17  1  0
  8 18  1  0
M  END
>  <CHROM.1>  (1) 
78.94249604,-176.91395909,-1.79479457,-0.59714851,1.05421870

>  <Name>  (1) 
F374

>  <RI>  (1) 
3.28549e+07

>  <Rbt.Current_Directory>  (1) 
/data/out

>  <Rbt.Executable>  (1) 
rbdock ($Id: //depot/dev/client3/rdock/2013.1/src/exe/rbdock.cxx#4 $)

>  <Rbt.Library>  (1) 
libRbt.so (2013.1, Build901 2013/11/27)

>  <Rbt.Parameter_File>  (1) 
/python_libraries/phenodiscovery/docking/templates/RDOCK_TETHER.conf

>  <Rbt.Receptor>  (1) 
/data/out/rdock-opt/grid/rdock-grid.prm

>  <SCORE>  (1) 
0.860472

>  <SCORE.INTER>  (1) 
0.865689

>  <SCORE.INTER.CONST>  (1) 
1

>  <SCORE.INTER.POLAR>  (1) 
0

>  <SCORE.INTER.REPUL>  (1) 
0

>  <SCORE.INTER.ROT>  (1) 
2

>  <SCORE.INTER.VDW>  (1) 
-6.53431

>  <SCORE.INTER.norm>  (1) 
0.0865689

>  <SCORE.INTRA>  (1) 
-0.00521688

>  <SCORE.INTRA.DIHEDRAL>  (1) 
-0.118468

>  <SCORE.INTRA.DIHEDRAL.0>  (1) 
1.26149

>  <SCORE.INTRA.POLAR>  (1) 
0

>  <SCORE.INTRA.POLAR.0>  (1) 
0

>  <SCORE.INTRA.REPUL>  (1) 
0

>  <SCORE.INTRA.REPUL.0>  (1) 
0

>  <SCORE.INTRA.VDW>  (1) 
0.054017

>  <SCORE.INTRA.VDW.0>  (1) 
-1.07336

>  <SCORE.INTRA.norm>  (1) 
-0.000521688

>  <SCORE.RESTR>  (1) 
0

>  <SCORE.RESTR.CAVITY>  (1) 
0

>  <SCORE.RESTR.norm>  (1) 
0

>  <SCORE.SYSTEM>  (1) 
0

>  <SCORE.SYSTEM.CONST>  (1) 
0

>  <SCORE.SYSTEM.DIHEDRAL>  (1) 
0

>  <SCORE.SYSTEM.norm>  (1) 
0

>  <SCORE.heavy>  (1) 
10

>  <SCORE.norm>  (1) 
0.0860472

>  <TETHERED ATOMS>  (1) 
1,2,3,4,6,10,9,8,7

>  <skeledock_score>  (1) 
49

$$$$
