F368
     RDKit          3D

 29 30  0  0  0  0  0  0  0  0999 V2000
  -22.8096   17.7422   30.2663 C   0  0  0  0  0  0  0  0  0  0  0  0
  -22.7364   17.3981   28.7832 C   0  0  0  0  0  0  0  0  0  0  0  0
  -21.6618   16.4422   28.5340 N   0  0  0  0  0  0  0  0  0  0  0  0
  -21.8103   15.1181   28.3399 C   0  0  0  0  0  0  0  0  0  0  0  0
  -20.5598   14.5916   28.1144 C   0  0  0  0  0  0  0  0  0  0  0  0
  -20.2786   13.2428   27.7233 N   0  0  0  0  0  0  0  0  0  0  0  0
  -18.9878   12.8296   27.2629 C   0  0  0  0  0  0  0  0  0  0  0  0
  -17.9537   13.1917   27.8867 O   0  0  0  0  0  0  0  0  0  0  0  0
  -18.8512   11.9026   26.0828 C   0  0  0  0  0  0  0  0  0  0  0  0
  -17.8176   12.3883   25.0666 C   0  0  0  0  0  0  0  0  0  0  0  0
  -18.9054   12.5186   24.0117 C   0  0  0  0  0  0  0  0  0  0  0  0
  -19.9425   12.0459   25.0174 C   0  0  0  0  0  0  0  0  0  0  0  0
  -19.6810   15.6580   28.1787 C   0  0  0  0  0  0  0  0  0  0  0  0
  -20.3828   16.7771   28.4422 N   0  0  0  0  0  0  0  0  0  0  0  0
  -23.6138   18.4884   30.4370 H   0  0  0  0  0  0  0  0  0  0  0  0
  -21.8430   18.1718   30.6052 H   0  0  0  0  0  0  0  0  0  0  0  0
  -23.0349   16.8322   30.8618 H   0  0  0  0  0  0  0  0  0  0  0  0
  -23.7027   16.9596   28.4540 H   0  0  0  0  0  0  0  0  0  0  0  0
  -22.5638   18.3314   28.2033 H   0  0  0  0  0  0  0  0  0  0  0  0
  -22.7543   14.5882   28.3252 H   0  0  0  0  0  0  0  0  0  0  0  0
  -21.0825   12.5847   27.6121 H   0  0  0  0  0  0  0  0  0  0  0  0
  -18.6879   10.8456   26.3878 H   0  0  0  0  0  0  0  0  0  0  0  0
  -17.0752   11.6008   24.8110 H   0  0  0  0  0  0  0  0  0  0  0  0
  -17.3543   13.3710   25.3082 H   0  0  0  0  0  0  0  0  0  0  0  0
  -18.7712   11.8060   23.1687 H   0  0  0  0  0  0  0  0  0  0  0  0
  -19.0671   13.5721   23.6940 H   0  0  0  0  0  0  0  0  0  0  0  0
  -20.7017   12.8332   25.2154 H   0  0  0  0  0  0  0  0  0  0  0  0
  -20.3866   11.0665   24.7347 H   0  0  0  0  0  0  0  0  0  0  0  0
  -18.6130   15.6393   28.0131 H   0  0  0  0  0  0  0  0  0  0  0  0
  1  2  1  0
  2  3  1  0
  3  4  1  0
  4  5  2  0
  5  6  1  0
  6  7  1  0
  7  8  2  0
  7  9  1  0
  9 10  1  0
 10 11  1  0
 11 12  1  0
  5 13  1  0
 13 14  2  0
 14  3  1  0
 12  9  1  0
  1 15  1  0
  1 16  1  0
  1 17  1  0
  2 18  1  0
  2 19  1  0
  4 20  1  0
  6 21  1  0
  9 22  1  0
 10 23  1  0
 10 24  1  0
 11 25  1  0
 11 26  1  0
 12 27  1  0
 12 28  1  0
 13 29  1  0
M  END
>  <CHROM.1>  (1) 
101.54881553,167.87847720,132.37650395,2.65562193,-1.02435639,1.69046866

>  <Name>  (1) 
F368

>  <RI>  (1) 
2.7746e+07

>  <Rbt.Current_Directory>  (1) 
/data/out

>  <Rbt.Executable>  (1) 
rbdock ($Id: //depot/dev/client3/rdock/2013.1/src/exe/rbdock.cxx#4 $)

>  <Rbt.Library>  (1) 
libRbt.so (2013.1, Build901 2013/11/27)

>  <Rbt.Parameter_File>  (1) 
/python_libraries/phenodiscovery/docking/templates/RDOCK_TETHER.conf

>  <Rbt.Receptor>  (1) 
/data/out/rdock-opt/grid/rdock-grid.prm

>  <SCORE>  (1) 
-4.08318

>  <SCORE.INTER>  (1) 
-4.03894

>  <SCORE.INTER.CONST>  (1) 
1

>  <SCORE.INTER.POLAR>  (1) 
0

>  <SCORE.INTER.REPUL>  (1) 
0

>  <SCORE.INTER.ROT>  (1) 
3

>  <SCORE.INTER.VDW>  (1) 
-12.4389

>  <SCORE.INTER.norm>  (1) 
-0.288496

>  <SCORE.INTRA>  (1) 
-0.044245

>  <SCORE.INTRA.DIHEDRAL>  (1) 
-0.0606809

>  <SCORE.INTRA.DIHEDRAL.0>  (1) 
6.16345

>  <SCORE.INTRA.POLAR>  (1) 
0

>  <SCORE.INTRA.POLAR.0>  (1) 
0

>  <SCORE.INTRA.REPUL>  (1) 
0

>  <SCORE.INTRA.REPUL.0>  (1) 
0

>  <SCORE.INTRA.VDW>  (1) 
-0.0139045

>  <SCORE.INTRA.VDW.0>  (1) 
-2.10022

>  <SCORE.INTRA.norm>  (1) 
-0.00316035

>  <SCORE.RESTR>  (1) 
0

>  <SCORE.RESTR.CAVITY>  (1) 
0

>  <SCORE.RESTR.norm>  (1) 
0

>  <SCORE.SYSTEM>  (1) 
0

>  <SCORE.SYSTEM.CONST>  (1) 
0

>  <SCORE.SYSTEM.DIHEDRAL>  (1) 
0

>  <SCORE.SYSTEM.norm>  (1) 
0

>  <SCORE.heavy>  (1) 
14

>  <SCORE.norm>  (1) 
-0.291656

>  <TETHERED ATOMS>  (1) 
2,3,14,5,1,6,7,9,12,11,10

>  <skeledock_score>  (1) 
38

$$$$
