F535
     RDKit          3D

 22 23  0  0  0  0  0  0  0  0999 V2000
  -19.0938   14.2158   25.3275 C   0  0  0  0  0  0  0  0  0  0  0  0
  -20.3907   13.8752   25.9113 N   0  0  0  0  0  0  0  0  0  0  0  0
  -20.2504   12.7567   26.8510 C   0  0  0  0  0  0  0  0  0  0  0  0
  -19.4025   13.1593   28.0210 C   0  0  0  0  0  0  0  0  0  0  0  0
  -18.2858   12.5063   28.4214 N   0  0  0  0  0  0  0  0  0  0  0  0
  -17.8005   13.1513   29.4783 N   0  0  0  0  0  0  0  0  0  0  0  0
  -18.6329   14.1847   29.6999 C   0  0  0  0  0  0  0  0  0  0  0  0
  -18.5225   15.1462   30.7004 C   0  0  0  0  0  0  0  0  0  0  0  0
  -19.5064   16.1489   30.7444 C   0  0  0  0  0  0  0  0  0  0  0  0
  -20.5564   16.1608   29.8025 C   0  0  0  0  0  0  0  0  0  0  0  0
  -20.6124   15.1629   28.8166 C   0  0  0  0  0  0  0  0  0  0  0  0
  -19.6378   14.2174   28.8153 N   0  0  0  0  0  0  0  0  0  0  0  0
  -19.2260   15.0358   24.5905 H   0  0  0  0  0  0  0  0  0  0  0  0
  -18.3974   14.5733   26.1164 H   0  0  0  0  0  0  0  0  0  0  0  0
  -18.6508   13.3391   24.8049 H   0  0  0  0  0  0  0  0  0  0  0  0
  -21.0151   13.5660   25.1291 H   0  0  0  0  0  0  0  0  0  0  0  0
  -21.2503   12.4374   27.2212 H   0  0  0  0  0  0  0  0  0  0  0  0
  -19.7568   11.8929   26.3531 H   0  0  0  0  0  0  0  0  0  0  0  0
  -17.7107   15.1246   31.4159 H   0  0  0  0  0  0  0  0  0  0  0  0
  -19.4582   16.9163   31.5059 H   0  0  0  0  0  0  0  0  0  0  0  0
  -21.3128   16.9338   29.8388 H   0  0  0  0  0  0  0  0  0  0  0  0
  -21.4064   15.1513   28.0809 H   0  0  0  0  0  0  0  0  0  0  0  0
  1  2  1  0
  2  3  1  0
  3  4  1  0
  4  5  2  0
  5  6  1  0
  6  7  2  0
  7  8  1  0
  8  9  2  0
  9 10  1  0
 10 11  2  0
 11 12  1  0
 12  4  1  0
 12  7  1  0
  1 13  1  0
  1 14  1  0
  1 15  1  0
  2 16  1  0
  3 17  1  0
  3 18  1  0
  8 19  1  0
  9 20  1  0
 10 21  1  0
 11 22  1  0
M  END
>  <CHROM.1>  (1) 
64.80041718,-124.55347632,-1.38288788,0.77585656,-2.09998370

>  <Name>  (1) 
F535

>  <RI>  (1) 
1.1531e+07

>  <Rbt.Current_Directory>  (1) 
/data/out

>  <Rbt.Executable>  (1) 
rbdock ($Id: //depot/dev/client3/rdock/2013.1/src/exe/rbdock.cxx#4 $)

>  <Rbt.Library>  (1) 
libRbt.so (2013.1, Build901 2013/11/27)

>  <Rbt.Parameter_File>  (1) 
/python_libraries/phenodiscovery/docking/templates/RDOCK_TETHER.conf

>  <Rbt.Receptor>  (1) 
/data/out/rdock-opt/grid/rdock-grid.prm

>  <SCORE>  (1) 
-0.707377

>  <SCORE.INTER>  (1) 
-0.279893

>  <SCORE.INTER.CONST>  (1) 
1

>  <SCORE.INTER.POLAR>  (1) 
0

>  <SCORE.INTER.REPUL>  (1) 
0

>  <SCORE.INTER.ROT>  (1) 
2

>  <SCORE.INTER.VDW>  (1) 
-7.67989

>  <SCORE.INTER.norm>  (1) 
-0.0233244

>  <SCORE.INTRA>  (1) 
-0.427483

>  <SCORE.INTRA.DIHEDRAL>  (1) 
-0.117246

>  <SCORE.INTRA.DIHEDRAL.0>  (1) 
1.48241

>  <SCORE.INTRA.POLAR>  (1) 
0

>  <SCORE.INTRA.POLAR.0>  (1) 
0

>  <SCORE.INTRA.REPUL>  (1) 
0

>  <SCORE.INTRA.REPUL.0>  (1) 
0

>  <SCORE.INTRA.VDW>  (1) 
-0.36886

>  <SCORE.INTRA.VDW.0>  (1) 
-0.280462

>  <SCORE.INTRA.norm>  (1) 
-0.0356236

>  <SCORE.RESTR>  (1) 
0

>  <SCORE.RESTR.CAVITY>  (1) 
0

>  <SCORE.RESTR.norm>  (1) 
0

>  <SCORE.SYSTEM>  (1) 
0

>  <SCORE.SYSTEM.CONST>  (1) 
0

>  <SCORE.SYSTEM.DIHEDRAL>  (1) 
0

>  <SCORE.SYSTEM.norm>  (1) 
0

>  <SCORE.heavy>  (1) 
12

>  <SCORE.norm>  (1) 
-0.058948

>  <TETHERED ATOMS>  (1) 
7,8,9,10,11,1,2,3,4,12,6

>  <skeledock_score>  (1) 
50

$$$$
