F763
     RDKit          3D

 19 19  0  0  0  0  0  0  0  0999 V2000
  -25.2029   16.0852   28.8216 O   0  0  0  0  0  0  0  0  0  0  0  0
  -24.6192   14.9669   28.8373 C   0  0  0  0  0  0  0  0  0  0  0  0
  -25.1293   13.9182   29.5635 N   0  0  0  0  0  0  0  0  0  0  0  0
  -26.4060   14.0478   30.2813 C   0  0  0  0  0  0  0  0  0  0  0  0
  -27.5755   13.6332   29.3850 C   0  0  0  0  0  0  0  0  0  0  0  0
  -27.4628   12.2850   29.0142 O   0  0  0  0  0  0  0  0  0  0  0  0
  -24.4920   12.7063   29.5691 C   0  0  0  0  0  0  0  0  0  0  0  0
  -23.3279   12.5105   28.8277 C   0  0  0  0  0  0  0  0  0  0  0  0
  -22.8111   13.5630   28.0776 C   0  0  0  0  0  0  0  0  0  0  0  0
  -21.2511   13.2971   27.0154 Br  0  0  0  0  0  0  0  0  0  0  0  0
  -23.4485   14.8024   28.0910 C   0  0  0  0  0  0  0  0  0  0  0  0
  -26.5561   15.0959   30.6216 H   0  0  0  0  0  0  0  0  0  0  0  0
  -26.4058   13.4211   31.2011 H   0  0  0  0  0  0  0  0  0  0  0  0
  -28.5217   13.7630   29.9514 H   0  0  0  0  0  0  0  0  0  0  0  0
  -27.6293   14.2922   28.4878 H   0  0  0  0  0  0  0  0  0  0  0  0
  -28.2681   12.0671   28.4761 H   0  0  0  0  0  0  0  0  0  0  0  0
  -24.8965   11.8723   30.1308 H   0  0  0  0  0  0  0  0  0  0  0  0
  -22.8418   11.5433   28.8257 H   0  0  0  0  0  0  0  0  0  0  0  0
  -23.0494   15.6248   27.5097 H   0  0  0  0  0  0  0  0  0  0  0  0
  1  2  2  0
  2  3  1  0
  3  4  1  0
  4  5  1  0
  5  6  1  0
  3  7  1  0
  7  8  2  0
  8  9  1  0
  9 10  1  0
  9 11  2  0
 11  2  1  0
  4 12  1  0
  4 13  1  0
  5 14  1  0
  5 15  1  0
  6 16  1  0
  7 17  1  0
  8 18  1  0
 11 19  1  0
M  END
>  <CHROM.1>  (1) 
89.96370054,62.15441105,177.22667789,-2.93631717,-0.36585762,-2.67465197

>  <Name>  (1) 
F763

>  <RI>  (1) 
3.06347e+07

>  <Rbt.Current_Directory>  (1) 
/data/out

>  <Rbt.Executable>  (1) 
rbdock ($Id: //depot/dev/client3/rdock/2013.1/src/exe/rbdock.cxx#4 $)

>  <Rbt.Library>  (1) 
libRbt.so (2013.1, Build901 2013/11/27)

>  <Rbt.Parameter_File>  (1) 
/python_libraries/phenodiscovery/docking/templates/RDOCK_TETHER.conf

>  <Rbt.Receptor>  (1) 
/data/out/rdock-opt/grid/rdock-grid.prm

>  <SCORE>  (1) 
0.0615592

>  <SCORE.INTER>  (1) 
1.3682

>  <SCORE.INTER.CONST>  (1) 
1

>  <SCORE.INTER.POLAR>  (1) 
0

>  <SCORE.INTER.REPUL>  (1) 
0

>  <SCORE.INTER.ROT>  (1) 
2

>  <SCORE.INTER.VDW>  (1) 
-6.0318

>  <SCORE.INTER.norm>  (1) 
0.124382

>  <SCORE.INTRA>  (1) 
-1.30664

>  <SCORE.INTRA.DIHEDRAL>  (1) 
-2.96407

>  <SCORE.INTRA.DIHEDRAL.0>  (1) 
5.62978

>  <SCORE.INTRA.POLAR>  (1) 
0

>  <SCORE.INTRA.POLAR.0>  (1) 
0

>  <SCORE.INTRA.REPUL>  (1) 
0

>  <SCORE.INTRA.REPUL.0>  (1) 
0

>  <SCORE.INTRA.VDW>  (1) 
0.175391

>  <SCORE.INTRA.VDW.0>  (1) 
-0.131365

>  <SCORE.INTRA.norm>  (1) 
-0.118786

>  <SCORE.RESTR>  (1) 
0

>  <SCORE.RESTR.CAVITY>  (1) 
0

>  <SCORE.RESTR.norm>  (1) 
0

>  <SCORE.SYSTEM>  (1) 
0

>  <SCORE.SYSTEM.CONST>  (1) 
0

>  <SCORE.SYSTEM.DIHEDRAL>  (1) 
0

>  <SCORE.SYSTEM.norm>  (1) 
0

>  <SCORE.heavy>  (1) 
11

>  <SCORE.norm>  (1) 
0.00559629

>  <TETHERED ATOMS>  (1) 
2,3,4,5,11,9,10,6

>  <skeledock_score>  (1) 
36

$$$$
