F666
     RDKit          3D

 35 37  0  0  0  0  0  0  0  0999 V2000
  -21.7892   14.1090   32.6004 F   0  0  0  0  0  0  0  0  0  0  0  0
  -21.3122   14.2793   31.3428 C   0  0  0  0  0  0  0  0  0  0  0  0
  -20.5336   13.2834   30.7499 C   0  0  0  0  0  0  0  0  0  0  0  0
  -20.0477   13.4525   29.4499 C   0  0  0  0  0  0  0  0  0  0  0  0
  -20.3242   14.6324   28.7307 C   0  0  0  0  0  0  0  0  0  0  0  0
  -21.1105   15.6276   29.3416 C   0  0  0  0  0  0  0  0  0  0  0  0
  -21.6020   15.4491   30.6378 C   0  0  0  0  0  0  0  0  0  0  0  0
  -19.8770   14.7953   27.3655 N   0  0  0  0  0  0  0  0  0  0  0  0
  -18.9353   13.8148   26.7980 C   0  0  0  0  0  0  0  0  0  0  0  0
  -18.1953   14.3781   25.5779 C   0  0  0  0  0  0  0  0  0  0  0  0
  -17.8138   15.7775   25.8276 N   0  0  0  0  0  0  0  0  0  0  0  0
  -18.8385   16.7301   26.2961 C   0  0  0  0  0  0  0  0  0  0  0  0
  -20.1604   16.0179   26.6004 C   0  0  0  0  0  0  0  0  0  0  0  0
  -16.4565   16.2174   25.6091 C   0  0  0  0  0  0  0  0  0  0  0  0
  -15.6582   15.4985   24.9481 O   0  0  0  0  0  0  0  0  0  0  0  0
  -15.9846   17.5574   26.1047 C   0  0  0  0  0  0  0  0  0  0  0  0
  -14.5150   17.6293   26.4990 C   0  0  0  0  0  0  0  0  0  0  0  0
  -15.5854   17.5742   27.5732 C   0  0  0  0  0  0  0  0  0  0  0  0
  -20.3187   12.3711   31.2913 H   0  0  0  0  0  0  0  0  0  0  0  0
  -19.4895   12.6432   28.9993 H   0  0  0  0  0  0  0  0  0  0  0  0
  -21.3433   16.5453   28.8182 H   0  0  0  0  0  0  0  0  0  0  0  0
  -22.2061   16.2215   31.0964 H   0  0  0  0  0  0  0  0  0  0  0  0
  -18.1772   13.5478   27.5671 H   0  0  0  0  0  0  0  0  0  0  0  0
  -19.4812   12.8932   26.5043 H   0  0  0  0  0  0  0  0  0  0  0  0
  -17.3119   13.7388   25.3642 H   0  0  0  0  0  0  0  0  0  0  0  0
  -18.8620   14.3373   24.6895 H   0  0  0  0  0  0  0  0  0  0  0  0
  -19.0037   17.5133   25.5257 H   0  0  0  0  0  0  0  0  0  0  0  0
  -18.4936   17.2182   27.2318 H   0  0  0  0  0  0  0  0  0  0  0  0
  -20.8583   16.6961   27.1342 H   0  0  0  0  0  0  0  0  0  0  0  0
  -20.6576   15.7404   25.6457 H   0  0  0  0  0  0  0  0  0  0  0  0
  -16.4360   18.4937   25.7141 H   0  0  0  0  0  0  0  0  0  0  0  0
  -14.0531   18.6321   26.3807 H   0  0  0  0  0  0  0  0  0  0  0  0
  -13.9274   16.6900   26.4126 H   0  0  0  0  0  0  0  0  0  0  0  0
  -15.6429   16.5994   28.1049 H   0  0  0  0  0  0  0  0  0  0  0  0
  -15.7635   18.5434   28.0852 H   0  0  0  0  0  0  0  0  0  0  0  0
  1  2  1  0
  2  3  2  0
  3  4  1  0
  4  5  2  0
  5  6  1  0
  6  7  2  0
  5  8  1  0
  8  9  1  0
  9 10  1  0
 10 11  1  0
 11 12  1  0
 12 13  1  0
 11 14  1  0
 14 15  2  0
 14 16  1  0
 16 17  1  0
 17 18  1  0
  2  7  1  0
 13  8  1  0
 18 16  1  0
  3 19  1  0
  4 20  1  0
  6 21  1  0
  7 22  1  0
  9 23  1  0
  9 24  1  0
 10 25  1  0
 10 26  1  0
 12 27  1  0
 12 28  1  0
 13 29  1  0
 13 30  1  0
 16 31  1  0
 17 32  1  0
 17 33  1  0
 18 34  1  0
 18 35  1  0
M  END
>  <CHROM.1>  (1) 
-10.14954279,148.66226266,2.87032516,-0.92661110,3.00270461

>  <Name>  (1) 
F666

>  <RI>  (1) 
3.99847e+07

>  <Rbt.Current_Directory>  (1) 
/data/out

>  <Rbt.Executable>  (1) 
rbdock ($Id: //depot/dev/client3/rdock/2013.1/src/exe/rbdock.cxx#4 $)

>  <Rbt.Library>  (1) 
libRbt.so (2013.1, Build901 2013/11/27)

>  <Rbt.Parameter_File>  (1) 
/python_libraries/phenodiscovery/docking/templates/RDOCK_TETHER.conf

>  <Rbt.Receptor>  (1) 
/data/out/rdock-opt/grid/rdock-grid.prm

>  <SCORE>  (1) 
9.74841

>  <SCORE.INTER>  (1) 
3.37422

>  <SCORE.INTER.CONST>  (1) 
1

>  <SCORE.INTER.POLAR>  (1) 
0

>  <SCORE.INTER.REPUL>  (1) 
0.0561821

>  <SCORE.INTER.ROT>  (1) 
2

>  <SCORE.INTER.VDW>  (1) 
-4.30669

>  <SCORE.INTER.norm>  (1) 
0.187457

>  <SCORE.INTRA>  (1) 
6.37419

>  <SCORE.INTRA.DIHEDRAL>  (1) 
-4.56839

>  <SCORE.INTRA.DIHEDRAL.0>  (1) 
6.64777

>  <SCORE.INTRA.POLAR>  (1) 
0

>  <SCORE.INTRA.POLAR.0>  (1) 
0

>  <SCORE.INTRA.REPUL>  (1) 
0

>  <SCORE.INTRA.REPUL.0>  (1) 
0

>  <SCORE.INTRA.VDW>  (1) 
8.65839

>  <SCORE.INTRA.VDW.0>  (1) 
-1.21

>  <SCORE.INTRA.norm>  (1) 
0.354122

>  <SCORE.RESTR>  (1) 
0

>  <SCORE.RESTR.CAVITY>  (1) 
0

>  <SCORE.RESTR.norm>  (1) 
0

>  <SCORE.SYSTEM>  (1) 
0

>  <SCORE.SYSTEM.CONST>  (1) 
0

>  <SCORE.SYSTEM.DIHEDRAL>  (1) 
0

>  <SCORE.SYSTEM.norm>  (1) 
0

>  <SCORE.heavy>  (1) 
18

>  <SCORE.norm>  (1) 
0.541579

>  <TETHERED ATOMS>  (1) 
2,3,4,5,6,7,8,9,10,11,14

>  <skeledock_score>  (1) 
37

$$$$
