F603
     RDKit          3D

 24 25  0  0  0  0  0  0  0  0999 V2000
  -18.4664   11.4782   23.8679 C   0  0  0  0  0  0  0  0  0  0  0  0
  -18.8317   12.8128   24.9851 S   0  0  0  0  0  0  0  0  0  0  0  0
  -20.2956   13.1433   24.9019 O   0  0  0  0  0  0  0  0  0  0  0  0
  -18.0243   14.0192   24.5961 O   0  0  0  0  0  0  0  0  0  0  0  0
  -18.4205   12.3190   26.6471 C   0  0  0  0  0  0  0  0  0  0  0  0
  -18.8294   13.3721   27.6280 C   0  0  0  0  0  0  0  0  0  0  0  0
  -18.0832   13.7001   28.7176 N   0  0  0  0  0  0  0  0  0  0  0  0
  -18.8300   14.6468   29.3139 C   0  0  0  0  0  0  0  0  0  0  0  0
  -18.5476   15.3449   30.4861 C   0  0  0  0  0  0  0  0  0  0  0  0
  -19.4917   16.2933   30.9256 C   0  0  0  0  0  0  0  0  0  0  0  0
  -20.6798   16.5147   30.1910 C   0  0  0  0  0  0  0  0  0  0  0  0
  -20.9327   15.7909   29.0104 C   0  0  0  0  0  0  0  0  0  0  0  0
  -19.9749   14.8637   28.6069 C   0  0  0  0  0  0  0  0  0  0  0  0
  -19.9922   14.0634   27.5347 N   0  0  0  0  0  0  0  0  0  0  0  0
  -18.7188   11.7815   22.8310 H   0  0  0  0  0  0  0  0  0  0  0  0
  -17.3865   11.2299   23.9267 H   0  0  0  0  0  0  0  0  0  0  0  0
  -19.0646   10.5862   24.1467 H   0  0  0  0  0  0  0  0  0  0  0  0
  -17.3254   12.1533   26.7204 H   0  0  0  0  0  0  0  0  0  0  0  0
  -18.9378   11.3633   26.8756 H   0  0  0  0  0  0  0  0  0  0  0  0
  -17.6358   15.1647   31.0406 H   0  0  0  0  0  0  0  0  0  0  0  0
  -19.3071   16.8549   31.8320 H   0  0  0  0  0  0  0  0  0  0  0  0
  -21.3990   17.2449   30.5383 H   0  0  0  0  0  0  0  0  0  0  0  0
  -21.8378   15.9497   28.4385 H   0  0  0  0  0  0  0  0  0  0  0  0
  -20.7324   13.9868   26.8017 H   0  0  0  0  0  0  0  0  0  0  0  0
  1  2  1  0
  2  3  2  0
  2  4  2  0
  2  5  1  0
  5  6  1  0
  6  7  2  0
  7  8  1  0
  8  9  2  0
  9 10  1  0
 10 11  2  0
 11 12  1  0
 12 13  2  0
 13 14  1  0
 14  6  1  0
  8 13  1  0
  1 15  1  0
  1 16  1  0
  1 17  1  0
  5 18  1  0
  5 19  1  0
  9 20  1  0
 10 21  1  0
 11 22  1  0
 12 23  1  0
 14 24  1  0
M  END
>  <CHROM.1>  (1) 
-174.92011396,-141.52105386,-1.78523948,0.56463864,-2.05001697

>  <Name>  (1) 
F603

>  <RI>  (1) 
4.01978e+07

>  <Rbt.Current_Directory>  (1) 
/data/out

>  <Rbt.Executable>  (1) 
rbdock ($Id: //depot/dev/client3/rdock/2013.1/src/exe/rbdock.cxx#4 $)

>  <Rbt.Library>  (1) 
libRbt.so (2013.1, Build901 2013/11/27)

>  <Rbt.Parameter_File>  (1) 
/python_libraries/phenodiscovery/docking/templates/RDOCK_TETHER.conf

>  <Rbt.Receptor>  (1) 
/data/out/rdock-opt/grid/rdock-grid.prm

>  <SCORE>  (1) 
-2.00994

>  <SCORE.INTER>  (1) 
-1.1284

>  <SCORE.INTER.CONST>  (1) 
1

>  <SCORE.INTER.POLAR>  (1) 
0

>  <SCORE.INTER.REPUL>  (1) 
0.0628228

>  <SCORE.INTER.ROT>  (1) 
2

>  <SCORE.INTER.VDW>  (1) 
-8.84251

>  <SCORE.INTER.norm>  (1) 
-0.0805999

>  <SCORE.INTRA>  (1) 
-0.881542

>  <SCORE.INTRA.DIHEDRAL>  (1) 
-0.0126137

>  <SCORE.INTRA.DIHEDRAL.0>  (1) 
1.38273

>  <SCORE.INTRA.POLAR>  (1) 
-0.24647

>  <SCORE.INTRA.POLAR.0>  (1) 
0

>  <SCORE.INTRA.REPUL>  (1) 
0

>  <SCORE.INTRA.REPUL.0>  (1) 
0

>  <SCORE.INTRA.VDW>  (1) 
-0.037238

>  <SCORE.INTRA.VDW.0>  (1) 
-1.78998

>  <SCORE.INTRA.norm>  (1) 
-0.0629673

>  <SCORE.RESTR>  (1) 
0

>  <SCORE.RESTR.CAVITY>  (1) 
0

>  <SCORE.RESTR.norm>  (1) 
0

>  <SCORE.SYSTEM>  (1) 
0

>  <SCORE.SYSTEM.CONST>  (1) 
0

>  <SCORE.SYSTEM.DIHEDRAL>  (1) 
0

>  <SCORE.SYSTEM.norm>  (1) 
0

>  <SCORE.heavy>  (1) 
14

>  <SCORE.norm>  (1) 
-0.143567

>  <TETHERED ATOMS>  (1) 
8,9,10,11,12,13,2,5,6,14

>  <skeledock_score>  (1) 
45

$$$$
