F368
     RDKit          3D

 29 30  0  0  0  0  0  0  0  0999 V2000
  -18.9195   13.3253   31.8688 C   0  0  0  0  0  0  0  0  0  0  0  0
  -18.9142   14.6041   31.0379 C   0  0  0  0  0  0  0  0  0  0  0  0
  -19.1835   14.3083   29.6342 N   0  0  0  0  0  0  0  0  0  0  0  0
  -18.2967   13.8157   28.7494 C   0  0  0  0  0  0  0  0  0  0  0  0
  -18.9474   13.6855   27.5418 C   0  0  0  0  0  0  0  0  0  0  0  0
  -18.3855   13.3095   26.2777 N   0  0  0  0  0  0  0  0  0  0  0  0
  -19.1149   13.3405   25.0429 C   0  0  0  0  0  0  0  0  0  0  0  0
  -20.1332   14.0760   24.9225 O   0  0  0  0  0  0  0  0  0  0  0  0
  -18.6293   12.5271   23.8695 C   0  0  0  0  0  0  0  0  0  0  0  0
  -17.2716   12.9707   23.3266 C   0  0  0  0  0  0  0  0  0  0  0  0
  -16.6764   11.6257   23.7232 C   0  0  0  0  0  0  0  0  0  0  0  0
  -18.0285   11.1795   24.2647 C   0  0  0  0  0  0  0  0  0  0  0  0
  -20.2356   14.1308   27.7570 C   0  0  0  0  0  0  0  0  0  0  0  0
  -20.3576   14.4983   29.0486 N   0  0  0  0  0  0  0  0  0  0  0  0
  -19.9223   12.8493   31.8396 H   0  0  0  0  0  0  0  0  0  0  0  0
  -18.1642   12.6124   31.4752 H   0  0  0  0  0  0  0  0  0  0  0  0
  -18.6707   13.5653   32.9240 H   0  0  0  0  0  0  0  0  0  0  0  0
  -19.6823   15.3081   31.4246 H   0  0  0  0  0  0  0  0  0  0  0  0
  -17.9190   15.0904   31.1342 H   0  0  0  0  0  0  0  0  0  0  0  0
  -17.2575   13.6095   28.9673 H   0  0  0  0  0  0  0  0  0  0  0  0
  -17.3964   12.9727   26.2635 H   0  0  0  0  0  0  0  0  0  0  0  0
  -19.3883   12.4284   23.0616 H   0  0  0  0  0  0  0  0  0  0  0  0
  -16.8076   13.8190   23.8769 H   0  0  0  0  0  0  0  0  0  0  0  0
  -17.2854   13.1154   22.2241 H   0  0  0  0  0  0  0  0  0  0  0  0
  -15.9078   11.7192   24.5215 H   0  0  0  0  0  0  0  0  0  0  0  0
  -16.3485   11.0273   22.8452 H   0  0  0  0  0  0  0  0  0  0  0  0
  -18.4594   10.3377   23.6797 H   0  0  0  0  0  0  0  0  0  0  0  0
  -18.0041   10.9896   25.3609 H   0  0  0  0  0  0  0  0  0  0  0  0
  -21.0270   14.1983   27.0226 H   0  0  0  0  0  0  0  0  0  0  0  0
  1  2  1  0
  2  3  1  0
  3  4  1  0
  4  5  2  0
  5  6  1  0
  6  7  1  0
  7  8  2  0
  7  9  1  0
  9 10  1  0
 10 11  1  0
 11 12  1  0
  5 13  1  0
 13 14  2  0
 14  3  1  0
 12  9  1  0
  1 15  1  0
  1 16  1  0
  1 17  1  0
  2 18  1  0
  2 19  1  0
  4 20  1  0
  6 21  1  0
  9 22  1  0
 10 23  1  0
 10 24  1  0
 11 25  1  0
 11 26  1  0
 12 27  1  0
 12 28  1  0
 13 29  1  0
M  END
>  <CHROM.1>  (1) 
-78.35850879,-172.98329591,-64.62724597,-1.50883002,0.58230181,-1.80193203

>  <Name>  (1) 
F368

>  <RI>  (1) 
1.08879e+07

>  <Rbt.Current_Directory>  (1) 
/data/out

>  <Rbt.Executable>  (1) 
rbdock ($Id: //depot/dev/client3/rdock/2013.1/src/exe/rbdock.cxx#4 $)

>  <Rbt.Library>  (1) 
libRbt.so (2013.1, Build901 2013/11/27)

>  <Rbt.Parameter_File>  (1) 
/python_libraries/phenodiscovery/docking/templates/RDOCK_TETHER.conf

>  <Rbt.Receptor>  (1) 
/data/out/rdock-opt/grid/rdock-grid.prm

>  <SCORE>  (1) 
-0.942476

>  <SCORE.INTER>  (1) 
0.649395

>  <SCORE.INTER.CONST>  (1) 
1

>  <SCORE.INTER.POLAR>  (1) 
0

>  <SCORE.INTER.REPUL>  (1) 
0

>  <SCORE.INTER.ROT>  (1) 
3

>  <SCORE.INTER.VDW>  (1) 
-7.75061

>  <SCORE.INTER.norm>  (1) 
0.0463853

>  <SCORE.INTRA>  (1) 
-1.59187

>  <SCORE.INTRA.DIHEDRAL>  (1) 
-5.23957

>  <SCORE.INTRA.DIHEDRAL.0>  (1) 
9.31246

>  <SCORE.INTRA.POLAR>  (1) 
0

>  <SCORE.INTRA.POLAR.0>  (1) 
0

>  <SCORE.INTRA.REPUL>  (1) 
0

>  <SCORE.INTRA.REPUL.0>  (1) 
0

>  <SCORE.INTRA.VDW>  (1) 
1.02791

>  <SCORE.INTRA.VDW.0>  (1) 
-1.87974

>  <SCORE.INTRA.norm>  (1) 
-0.113705

>  <SCORE.RESTR>  (1) 
0

>  <SCORE.RESTR.CAVITY>  (1) 
0

>  <SCORE.RESTR.norm>  (1) 
0

>  <SCORE.SYSTEM>  (1) 
0

>  <SCORE.SYSTEM.CONST>  (1) 
0

>  <SCORE.SYSTEM.DIHEDRAL>  (1) 
0

>  <SCORE.SYSTEM.norm>  (1) 
0

>  <SCORE.heavy>  (1) 
14

>  <SCORE.norm>  (1) 
-0.0673197

>  <TETHERED ATOMS>  (1) 
4,5,6,7,8,9,2,3

>  <skeledock_score>  (1) 
35

$$$$
