F95
     RDKit          3D

 27 27  0  0  0  0  0  0  0  0999 V2000
  -20.2453   12.6826   25.0313 C   0  0  0  0  0  0  0  0  0  0  0  0
  -19.6514   13.6493   26.0029 C   0  0  0  0  0  0  0  0  0  0  0  0
  -18.5251   13.4084   26.5158 O   0  0  0  0  0  0  0  0  0  0  0  0
  -20.3595   14.8476   26.3393 N   0  0  0  0  0  0  0  0  0  0  0  0
  -19.8258   15.8116   27.3010 C   0  0  0  0  0  0  0  0  0  0  0  0
  -19.8239   15.2267   28.6876 C   0  0  0  0  0  0  0  0  0  0  0  0
  -21.0174   14.7315   29.2364 C   0  0  0  0  0  0  0  0  0  0  0  0
  -21.0274   14.1737   30.5174 C   0  0  0  0  0  0  0  0  0  0  0  0
  -19.8434   14.0990   31.2627 C   0  0  0  0  0  0  0  0  0  0  0  0
  -18.6518   14.5999   30.7213 C   0  0  0  0  0  0  0  0  0  0  0  0
  -18.6404   15.1591   29.4396 C   0  0  0  0  0  0  0  0  0  0  0  0
  -19.8591   13.4103   32.8833 S   0  0  0  0  0  0  0  0  0  0  0  0
  -18.5110   12.8261   33.2010 O   0  0  0  0  0  0  0  0  0  0  0  0
  -20.1672   14.4835   33.8894 O   0  0  0  0  0  0  0  0  0  0  0  0
  -21.0606   12.1712   32.9761 N   0  0  0  0  0  0  0  0  0  0  0  0
  -20.4049   13.1874   24.0558 H   0  0  0  0  0  0  0  0  0  0  0  0
  -21.2199   12.3189   25.4184 H   0  0  0  0  0  0  0  0  0  0  0  0
  -19.5703   11.8134   24.8810 H   0  0  0  0  0  0  0  0  0  0  0  0
  -21.2735   15.0340   25.8658 H   0  0  0  0  0  0  0  0  0  0  0  0
  -18.7987   16.1008   26.9893 H   0  0  0  0  0  0  0  0  0  0  0  0
  -20.4529   16.7298   27.3026 H   0  0  0  0  0  0  0  0  0  0  0  0
  -21.9396   14.7777   28.6701 H   0  0  0  0  0  0  0  0  0  0  0  0
  -21.9577   13.8021   30.9276 H   0  0  0  0  0  0  0  0  0  0  0  0
  -17.7320   14.5600   31.2908 H   0  0  0  0  0  0  0  0  0  0  0  0
  -17.7092   15.5356   29.0349 H   0  0  0  0  0  0  0  0  0  0  0  0
  -20.7378   11.3874   32.3657 H   0  0  0  0  0  0  0  0  0  0  0  0
  -21.0524   11.8116   33.9570 H   0  0  0  0  0  0  0  0  0  0  0  0
  1  2  1  0
  2  3  2  0
  2  4  1  0
  4  5  1  0
  5  6  1  0
  6  7  2  0
  7  8  1  0
  8  9  2  0
  9 10  1  0
 10 11  2  0
  9 12  1  0
 12 13  2  0
 12 14  2  0
 12 15  1  0
  6 11  1  0
  1 16  1  0
  1 17  1  0
  1 18  1  0
  4 19  1  0
  5 20  1  0
  5 21  1  0
  7 22  1  0
  8 23  1  0
 10 24  1  0
 11 25  1  0
 15 26  1  0
 15 27  1  0
M  END
>  <CHROM.1>  (1) 
-68.39387605,-55.60268169,152.41159837,67.47327771,1.55775891,0.20161034
-1.75962489

>  <Name>  (1) 
F95

>  <RI>  (1) 
4.19099e+07

>  <Rbt.Current_Directory>  (1) 
/data/out

>  <Rbt.Executable>  (1) 
rbdock ($Id: //depot/dev/client3/rdock/2013.1/src/exe/rbdock.cxx#4 $)

>  <Rbt.Library>  (1) 
libRbt.so (2013.1, Build901 2013/11/27)

>  <Rbt.Parameter_File>  (1) 
/python_libraries/phenodiscovery/docking/templates/RDOCK_TETHER.conf

>  <Rbt.Receptor>  (1) 
/data/out/rdock-opt/grid/rdock-grid.prm

>  <SCORE>  (1) 
-1.84787

>  <SCORE.INTER>  (1) 
-1.32256

>  <SCORE.INTER.CONST>  (1) 
1

>  <SCORE.INTER.POLAR>  (1) 
-0.69282

>  <SCORE.INTER.REPUL>  (1) 
0.0125687

>  <SCORE.INTER.ROT>  (1) 
4

>  <SCORE.INTER.VDW>  (1) 
-8.42981

>  <SCORE.INTER.norm>  (1) 
-0.0881704

>  <SCORE.INTRA>  (1) 
-0.525311

>  <SCORE.INTRA.DIHEDRAL>  (1) 
0.0230697

>  <SCORE.INTRA.DIHEDRAL.0>  (1) 
3.11433

>  <SCORE.INTRA.POLAR>  (1) 
0

>  <SCORE.INTRA.POLAR.0>  (1) 
0

>  <SCORE.INTRA.REPUL>  (1) 
0

>  <SCORE.INTRA.REPUL.0>  (1) 
0

>  <SCORE.INTRA.VDW>  (1) 
-0.536846

>  <SCORE.INTRA.VDW.0>  (1) 
-1.45589

>  <SCORE.INTRA.norm>  (1) 
-0.0350207

>  <SCORE.RESTR>  (1) 
0

>  <SCORE.RESTR.CAVITY>  (1) 
0

>  <SCORE.RESTR.norm>  (1) 
0

>  <SCORE.SYSTEM>  (1) 
0

>  <SCORE.SYSTEM.CONST>  (1) 
0

>  <SCORE.SYSTEM.DIHEDRAL>  (1) 
0

>  <SCORE.SYSTEM.norm>  (1) 
0

>  <SCORE.heavy>  (1) 
15

>  <SCORE.norm>  (1) 
-0.123191

>  <TETHERED ATOMS>  (1) 
5,4,2,6,9,3,1,7,11,10,8

>  <skeledock_score>  (1) 
68

$$$$
