F274
     RDKit          3D

 26 27  0  0  0  0  0  0  0  0999 V2000
  -18.0204   11.7913   24.5686 C   0  0  0  0  0  0  0  0  0  0  0  0
  -18.7572   12.7308   25.4630 C   0  0  0  0  0  0  0  0  0  0  0  0
  -18.7764   12.6850   26.8407 C   0  0  0  0  0  0  0  0  0  0  0  0
  -19.5866   13.7470   27.1809 C   0  0  0  0  0  0  0  0  0  0  0  0
  -19.9763   14.1622   28.5644 C   0  0  0  0  0  0  0  0  0  0  0  0
  -21.4328   14.2982   28.6616 N   0  0  0  0  0  0  0  0  0  0  0  0
  -21.9365   15.4745   29.0501 N   0  0  0  0  0  0  0  0  0  0  0  0
  -23.2746   15.6882   29.1619 C   0  0  0  0  0  0  0  0  0  0  0  0
  -23.7871   17.0248   29.5919 C   0  0  0  0  0  0  0  0  0  0  0  0
  -24.1591   14.6534   28.8579 C   0  0  0  0  0  0  0  0  0  0  0  0
  -23.6492   13.4245   28.4543 C   0  0  0  0  0  0  0  0  0  0  0  0
  -22.2676   13.2537   28.3591 C   0  0  0  0  0  0  0  0  0  0  0  0
  -21.8039   12.1380   27.9967 O   0  0  0  0  0  0  0  0  0  0  0  0
  -19.9946   14.3431   26.0844 O   0  0  0  0  0  0  0  0  0  0  0  0
  -19.5125   13.7576   25.0266 N   0  0  0  0  0  0  0  0  0  0  0  0
  -16.9339   11.8404   24.7904 H   0  0  0  0  0  0  0  0  0  0  0  0
  -18.3826   10.7555   24.7365 H   0  0  0  0  0  0  0  0  0  0  0  0
  -18.1853   12.0642   23.5051 H   0  0  0  0  0  0  0  0  0  0  0  0
  -18.2799   11.9815   27.4963 H   0  0  0  0  0  0  0  0  0  0  0  0
  -19.6073   13.4303   29.3161 H   0  0  0  0  0  0  0  0  0  0  0  0
  -19.4859   15.1354   28.7853 H   0  0  0  0  0  0  0  0  0  0  0  0
  -24.4362   16.9096   30.4855 H   0  0  0  0  0  0  0  0  0  0  0  0
  -24.3748   17.4825   28.7687 H   0  0  0  0  0  0  0  0  0  0  0  0
  -22.9445   17.7012   29.8491 H   0  0  0  0  0  0  0  0  0  0  0  0
  -25.2298   14.7978   28.9340 H   0  0  0  0  0  0  0  0  0  0  0  0
  -24.3233   12.6104   28.2173 H   0  0  0  0  0  0  0  0  0  0  0  0
  1  2  1  0
  2  3  1  0
  3  4  2  0
  4  5  1  0
  5  6  1  0
  6  7  1  0
  7  8  2  0
  8  9  1  0
  8 10  1  0
 10 11  2  0
 11 12  1  0
 12 13  2  0
  4 14  1  0
 14 15  1  0
  2 15  2  0
 12  6  1  0
  1 16  1  0
  1 17  1  0
  1 18  1  0
  3 19  1  0
  5 20  1  0
  5 21  1  0
  9 22  1  0
  9 23  1  0
  9 24  1  0
 10 25  1  0
 11 26  1  0
M  END
>  <CHROM.1>  (1) 
-128.16980429,-122.74418394,-1.24310712,0.02912121,0.30549827

>  <Name>  (1) 
F274

>  <RI>  (1) 
2.61004e+07

>  <Rbt.Current_Directory>  (1) 
/data/out

>  <Rbt.Executable>  (1) 
rbdock ($Id: //depot/dev/client3/rdock/2013.1/src/exe/rbdock.cxx#4 $)

>  <Rbt.Library>  (1) 
libRbt.so (2013.1, Build901 2013/11/27)

>  <Rbt.Parameter_File>  (1) 
/python_libraries/phenodiscovery/docking/templates/RDOCK_TETHER.conf

>  <Rbt.Receptor>  (1) 
/data/out/rdock-opt/grid/rdock-grid.prm

>  <SCORE>  (1) 
-4.02703

>  <SCORE.INTER>  (1) 
-3.94527

>  <SCORE.INTER.CONST>  (1) 
1

>  <SCORE.INTER.POLAR>  (1) 
-0.412375

>  <SCORE.INTER.REPUL>  (1) 
0

>  <SCORE.INTER.ROT>  (1) 
2

>  <SCORE.INTER.VDW>  (1) 
-9.94319

>  <SCORE.INTER.norm>  (1) 
-0.263018

>  <SCORE.INTRA>  (1) 
-0.0817621

>  <SCORE.INTRA.DIHEDRAL>  (1) 
-0.116334

>  <SCORE.INTRA.DIHEDRAL.0>  (1) 
2.84377

>  <SCORE.INTRA.POLAR>  (1) 
0

>  <SCORE.INTRA.POLAR.0>  (1) 
0

>  <SCORE.INTRA.REPUL>  (1) 
0

>  <SCORE.INTRA.REPUL.0>  (1) 
0

>  <SCORE.INTRA.VDW>  (1) 
-0.0235951

>  <SCORE.INTRA.VDW.0>  (1) 
-1.29069

>  <SCORE.INTRA.norm>  (1) 
-0.0054508

>  <SCORE.RESTR>  (1) 
0

>  <SCORE.RESTR.CAVITY>  (1) 
0

>  <SCORE.RESTR.norm>  (1) 
0

>  <SCORE.SYSTEM>  (1) 
0

>  <SCORE.SYSTEM.CONST>  (1) 
0

>  <SCORE.SYSTEM.DIHEDRAL>  (1) 
0

>  <SCORE.SYSTEM.norm>  (1) 
0

>  <SCORE.heavy>  (1) 
15

>  <SCORE.norm>  (1) 
-0.268469

>  <TETHERED ATOMS>  (1) 
6,7,8,9,12,11

>  <skeledock_score>  (1) 
31

$$$$
