F579
     RDKit          3D

 29 31  0  0  0  0  0  0  0  0999 V2000
  -26.6574   16.2501   32.9678 C   0  0  0  0  0  0  0  0  0  0  0  0
  -26.1186   15.1388   32.2592 O   0  0  0  0  0  0  0  0  0  0  0  0
  -24.9524   15.1864   31.4815 C   0  0  0  0  0  0  0  0  0  0  0  0
  -24.1978   16.3777   31.3173 C   0  0  0  0  0  0  0  0  0  0  0  0
  -23.0340   16.3855   30.5294 C   0  0  0  0  0  0  0  0  0  0  0  0
  -22.6320   15.2028   29.9102 C   0  0  0  0  0  0  0  0  0  0  0  0
  -21.5285   15.0817   29.1272 N   0  0  0  0  0  0  0  0  0  0  0  0
  -21.4022   13.8107   28.6693 C   0  0  0  0  0  0  0  0  0  0  0  0
  -20.3426   13.3631   27.8114 N   0  0  0  0  0  0  0  0  0  0  0  0
  -19.3068   14.2211   27.2909 C   0  0  0  0  0  0  0  0  0  0  0  0
  -19.2742   15.4357   27.6202 O   0  0  0  0  0  0  0  0  0  0  0  0
  -18.2283   13.7299   26.3515 C   0  0  0  0  0  0  0  0  0  0  0  0
  -18.6591   13.3504   24.9425 C   0  0  0  0  0  0  0  0  0  0  0  0
  -17.8667   14.6306   25.1797 C   0  0  0  0  0  0  0  0  0  0  0  0
  -22.6442   12.7977   29.2174 S   0  0  0  0  0  0  0  0  0  0  0  0
  -23.3714   14.0435   30.0741 C   0  0  0  0  0  0  0  0  0  0  0  0
  -24.5276   14.0054   30.8481 C   0  0  0  0  0  0  0  0  0  0  0  0
  -26.9171   17.0649   32.2593 H   0  0  0  0  0  0  0  0  0  0  0  0
  -27.5793   15.9310   33.4957 H   0  0  0  0  0  0  0  0  0  0  0  0
  -25.9255   16.6153   33.7187 H   0  0  0  0  0  0  0  0  0  0  0  0
  -24.5031   17.2991   31.7938 H   0  0  0  0  0  0  0  0  0  0  0  0
  -22.4609   17.2955   30.4065 H   0  0  0  0  0  0  0  0  0  0  0  0
  -20.3580   12.3525   27.5567 H   0  0  0  0  0  0  0  0  0  0  0  0
  -17.3856   13.1322   26.7612 H   0  0  0  0  0  0  0  0  0  0  0  0
  -19.7257   13.5048   24.6814 H   0  0  0  0  0  0  0  0  0  0  0  0
  -18.0607   12.5334   24.4864 H   0  0  0  0  0  0  0  0  0  0  0  0
  -16.8046   14.5628   24.8623 H   0  0  0  0  0  0  0  0  0  0  0  0
  -18.4491   15.5669   25.0629 H   0  0  0  0  0  0  0  0  0  0  0  0
  -25.0865   13.0849   30.9591 H   0  0  0  0  0  0  0  0  0  0  0  0
  1  2  1  0
  2  3  1  0
  3  4  2  0
  4  5  1  0
  5  6  2  0
  6  7  1  0
  7  8  2  0
  8  9  1  0
  9 10  1  0
 10 11  2  0
 10 12  1  0
 12 13  1  0
 13 14  1  0
  8 15  1  0
 15 16  1  0
 16 17  2  0
  3 17  1  0
  6 16  1  0
 14 12  1  0
  1 18  1  0
  1 19  1  0
  1 20  1  0
  4 21  1  0
  5 22  1  0
  9 23  1  0
 12 24  1  0
 13 25  1  0
 13 26  1  0
 14 27  1  0
 14 28  1  0
 17 29  1  0
M  END
>  <CHROM.1>  (1) 
-0.71181409,-2.31546340,69.29923383,-2.65266967,-0.59752098,-2.87398636

>  <Name>  (1) 
F579

>  <RI>  (1) 
1.45743e+07

>  <Rbt.Current_Directory>  (1) 
/data/out

>  <Rbt.Executable>  (1) 
rbdock ($Id: //depot/dev/client3/rdock/2013.1/src/exe/rbdock.cxx#4 $)

>  <Rbt.Library>  (1) 
libRbt.so (2013.1, Build901 2013/11/27)

>  <Rbt.Parameter_File>  (1) 
/python_libraries/phenodiscovery/docking/templates/RDOCK_TETHER.conf

>  <Rbt.Receptor>  (1) 
/data/out/rdock-opt/grid/rdock-grid.prm

>  <SCORE>  (1) 
0.0301957

>  <SCORE.INTER>  (1) 
0.248243

>  <SCORE.INTER.CONST>  (1) 
1

>  <SCORE.INTER.POLAR>  (1) 
-0.413432

>  <SCORE.INTER.REPUL>  (1) 
0

>  <SCORE.INTER.ROT>  (1) 
3

>  <SCORE.INTER.VDW>  (1) 
-6.74609

>  <SCORE.INTER.norm>  (1) 
0.0146025

>  <SCORE.INTRA>  (1) 
-0.218047

>  <SCORE.INTRA.DIHEDRAL>  (1) 
0.170801

>  <SCORE.INTRA.DIHEDRAL.0>  (1) 
1.862

>  <SCORE.INTRA.POLAR>  (1) 
0

>  <SCORE.INTRA.POLAR.0>  (1) 
0

>  <SCORE.INTRA.REPUL>  (1) 
0

>  <SCORE.INTRA.REPUL.0>  (1) 
0

>  <SCORE.INTRA.VDW>  (1) 
-0.303448

>  <SCORE.INTRA.VDW.0>  (1) 
-0.88905

>  <SCORE.INTRA.norm>  (1) 
-0.0128263

>  <SCORE.RESTR>  (1) 
0

>  <SCORE.RESTR.CAVITY>  (1) 
0

>  <SCORE.RESTR.norm>  (1) 
0

>  <SCORE.SYSTEM>  (1) 
0

>  <SCORE.SYSTEM.CONST>  (1) 
0

>  <SCORE.SYSTEM.DIHEDRAL>  (1) 
0

>  <SCORE.SYSTEM.norm>  (1) 
0

>  <SCORE.heavy>  (1) 
17

>  <SCORE.norm>  (1) 
0.00177622

>  <TETHERED ATOMS>  (1) 
5,6,7,8,9,10,11

>  <skeledock_score>  (1) 
32

$$$$
