F199
     RDKit          3D

 25 26  0  0  0  0  0  0  0  0999 V2000
  -21.0041   16.7223   31.7580 C   0  0  0  0  0  0  0  0  0  0  0  0
  -20.6051   15.8721   30.5990 C   0  0  0  0  0  0  0  0  0  0  0  0
  -19.4861   16.0303   29.8112 C   0  0  0  0  0  0  0  0  0  0  0  0
  -19.5878   14.9975   28.8996 C   0  0  0  0  0  0  0  0  0  0  0  0
  -20.7018   14.2806   29.1488 N   0  0  0  0  0  0  0  0  0  0  0  0
  -21.2866   14.8355   30.1712 O   0  0  0  0  0  0  0  0  0  0  0  0
  -18.6308   14.6824   27.8283 C   0  0  0  0  0  0  0  0  0  0  0  0
  -17.6687   15.4670   27.6111 O   0  0  0  0  0  0  0  0  0  0  0  0
  -18.7685   13.4753   27.0641 N   0  0  0  0  0  0  0  0  0  0  0  0
  -18.1910   13.2858   25.7666 C   0  0  0  0  0  0  0  0  0  0  0  0
  -17.5686   14.2273   24.9675 C   0  0  0  0  0  0  0  0  0  0  0  0
  -17.2613   13.6534   23.7867 N   0  0  0  0  0  0  0  0  0  0  0  0
  -17.6659   12.3921   23.8330 N   0  0  0  0  0  0  0  0  0  0  0  0
  -17.5767   11.4704   22.7092 C   0  0  0  0  0  0  0  0  0  0  0  0
  -18.2587   12.1360   25.0141 C   0  0  0  0  0  0  0  0  0  0  0  0
  -21.9986   17.1731   31.5604 H   0  0  0  0  0  0  0  0  0  0  0  0
  -20.2636   17.5341   31.9198 H   0  0  0  0  0  0  0  0  0  0  0  0
  -21.0614   16.0967   32.6727 H   0  0  0  0  0  0  0  0  0  0  0  0
  -18.7101   16.7789   29.9013 H   0  0  0  0  0  0  0  0  0  0  0  0
  -19.2998   12.6771   27.4786 H   0  0  0  0  0  0  0  0  0  0  0  0
  -17.3807   15.2653   25.2045 H   0  0  0  0  0  0  0  0  0  0  0  0
  -18.5266   11.4917   22.1351 H   0  0  0  0  0  0  0  0  0  0  0  0
  -16.7401   11.7654   22.0411 H   0  0  0  0  0  0  0  0  0  0  0  0
  -17.3923   10.4382   23.0759 H   0  0  0  0  0  0  0  0  0  0  0  0
  -18.7174   11.1963   25.2946 H   0  0  0  0  0  0  0  0  0  0  0  0
  1  2  1  0
  2  3  2  0
  3  4  1  0
  4  5  2  0
  5  6  1  0
  4  7  1  0
  7  8  2  0
  7  9  1  0
  9 10  1  0
 10 11  1  0
 11 12  2  0
 12 13  1  0
 13 14  1  0
 13 15  1  0
  6  2  1  0
 10 15  2  0
  1 16  1  0
  1 17  1  0
  1 18  1  0
  3 19  1  0
  9 20  1  0
 11 21  1  0
 14 22  1  0
 14 23  1  0
 14 24  1  0
 15 25  1  0
M  END
>  <CHROM.1>  (1) 
-6.49329107,-8.53041038,-2.19402087,-0.70402124,-2.43343479

>  <Name>  (1) 
F199

>  <RI>  (1) 
2.66564e+07

>  <Rbt.Current_Directory>  (1) 
/data/out

>  <Rbt.Executable>  (1) 
rbdock ($Id: //depot/dev/client3/rdock/2013.1/src/exe/rbdock.cxx#4 $)

>  <Rbt.Library>  (1) 
libRbt.so (2013.1, Build901 2013/11/27)

>  <Rbt.Parameter_File>  (1) 
/python_libraries/phenodiscovery/docking/templates/RDOCK_TETHER.conf

>  <Rbt.Receptor>  (1) 
/data/out/rdock-opt/grid/rdock-grid.prm

>  <SCORE>  (1) 
-2.5936

>  <SCORE.INTER>  (1) 
-1.2448

>  <SCORE.INTER.CONST>  (1) 
1

>  <SCORE.INTER.POLAR>  (1) 
0

>  <SCORE.INTER.REPUL>  (1) 
0.000339813

>  <SCORE.INTER.ROT>  (1) 
2

>  <SCORE.INTER.VDW>  (1) 
-8.6465

>  <SCORE.INTER.norm>  (1) 
-0.0829865

>  <SCORE.INTRA>  (1) 
-1.3488

>  <SCORE.INTRA.DIHEDRAL>  (1) 
-3.66033

>  <SCORE.INTRA.DIHEDRAL.0>  (1) 
4.32184

>  <SCORE.INTRA.POLAR>  (1) 
0

>  <SCORE.INTRA.POLAR.0>  (1) 
0

>  <SCORE.INTRA.REPUL>  (1) 
0

>  <SCORE.INTRA.REPUL.0>  (1) 
0

>  <SCORE.INTRA.VDW>  (1) 
0.481367

>  <SCORE.INTRA.VDW.0>  (1) 
-1.12704

>  <SCORE.INTRA.norm>  (1) 
-0.08992

>  <SCORE.RESTR>  (1) 
0

>  <SCORE.RESTR.CAVITY>  (1) 
0

>  <SCORE.RESTR.norm>  (1) 
0

>  <SCORE.SYSTEM>  (1) 
0

>  <SCORE.SYSTEM.CONST>  (1) 
0

>  <SCORE.SYSTEM.DIHEDRAL>  (1) 
0

>  <SCORE.SYSTEM.norm>  (1) 
0

>  <SCORE.heavy>  (1) 
15

>  <SCORE.norm>  (1) 
-0.172906

>  <TETHERED ATOMS>  (1) 
2,3,4,7,9,10,15,5,6,11

>  <skeledock_score>  (1) 
35

$$$$
