F467
     RDKit          3D

 23 23  0  0  0  0  0  0  0  0999 V2000
  -18.9987   13.8408   26.0401 C   0  0  0  0  0  0  0  0  0  0  0  0
  -19.0991   14.7358   27.1963 N   0  0  0  0  0  0  0  0  0  0  0  0
  -19.4116   16.1591   26.9856 C   0  0  0  0  0  0  0  0  0  0  0  0
  -20.9179   16.4202   27.0633 C   0  0  0  0  0  0  0  0  0  0  0  0
  -21.6005   15.6642   26.1022 O   0  0  0  0  0  0  0  0  0  0  0  0
  -18.7675   14.2281   28.5076 C   0  0  0  0  0  0  0  0  0  0  0  0
  -18.3082   12.9103   28.6888 C   0  0  0  0  0  0  0  0  0  0  0  0
  -18.0354   12.4463   29.9767 C   0  0  0  0  0  0  0  0  0  0  0  0
  -18.2155   13.2895   31.0726 C   0  0  0  0  0  0  0  0  0  0  0  0
  -18.6571   14.5960   30.8616 C   0  0  0  0  0  0  0  0  0  0  0  0
  -18.9176   15.0314   29.6001 N   0  0  0  0  0  0  0  0  0  0  0  0
  -17.9569   13.4706   25.9367 H   0  0  0  0  0  0  0  0  0  0  0  0
  -19.2746   14.3626   25.0995 H   0  0  0  0  0  0  0  0  0  0  0  0
  -19.6842   12.9778   26.1761 H   0  0  0  0  0  0  0  0  0  0  0  0
  -18.8890   16.7858   27.7401 H   0  0  0  0  0  0  0  0  0  0  0  0
  -19.0240   16.4909   25.9975 H   0  0  0  0  0  0  0  0  0  0  0  0
  -21.2992   16.1494   28.0699 H   0  0  0  0  0  0  0  0  0  0  0  0
  -21.1174   17.5050   26.9084 H   0  0  0  0  0  0  0  0  0  0  0  0
  -21.2617   15.9562   25.2158 H   0  0  0  0  0  0  0  0  0  0  0  0
  -18.1579   12.2452   27.8499 H   0  0  0  0  0  0  0  0  0  0  0  0
  -17.6849   11.4330   30.1250 H   0  0  0  0  0  0  0  0  0  0  0  0
  -18.0073   12.9370   32.0747 H   0  0  0  0  0  0  0  0  0  0  0  0
  -18.7935   15.2651   31.7006 H   0  0  0  0  0  0  0  0  0  0  0  0
  1  2  1  0
  2  3  1  0
  3  4  1  0
  4  5  1  0
  2  6  1  0
  6  7  2  0
  7  8  1  0
  8  9  2  0
  9 10  1  0
 10 11  2  0
  6 11  1  0
  1 12  1  0
  1 13  1  0
  1 14  1  0
  3 15  1  0
  3 16  1  0
  4 17  1  0
  4 18  1  0
  5 19  1  0
  7 20  1  0
  8 21  1  0
  9 22  1  0
 10 23  1  0
M  END
>  <CHROM.1>  (1) 
92.21862473,-58.92250156,-61.15344685,2.19636215,-2.75225374,-1.01684141
1.04490778

>  <Name>  (1) 
F467

>  <RI>  (1) 
1.11694e+07

>  <Rbt.Current_Directory>  (1) 
/data/out

>  <Rbt.Executable>  (1) 
rbdock ($Id: //depot/dev/client3/rdock/2013.1/src/exe/rbdock.cxx#4 $)

>  <Rbt.Library>  (1) 
libRbt.so (2013.1, Build901 2013/11/27)

>  <Rbt.Parameter_File>  (1) 
/python_libraries/phenodiscovery/docking/templates/RDOCK_TETHER.conf

>  <Rbt.Receptor>  (1) 
/data/out/rdock-opt/grid/rdock-grid.prm

>  <SCORE>  (1) 
-2.53503

>  <SCORE.INTER>  (1) 
-1.40723

>  <SCORE.INTER.CONST>  (1) 
1

>  <SCORE.INTER.POLAR>  (1) 
0

>  <SCORE.INTER.REPUL>  (1) 
0

>  <SCORE.INTER.ROT>  (1) 
3

>  <SCORE.INTER.VDW>  (1) 
-9.80723

>  <SCORE.INTER.norm>  (1) 
-0.12793

>  <SCORE.INTRA>  (1) 
-1.1278

>  <SCORE.INTRA.DIHEDRAL>  (1) 
-4.70558

>  <SCORE.INTRA.DIHEDRAL.0>  (1) 
6.92263

>  <SCORE.INTRA.POLAR>  (1) 
0

>  <SCORE.INTRA.POLAR.0>  (1) 
0

>  <SCORE.INTRA.REPUL>  (1) 
0

>  <SCORE.INTRA.REPUL.0>  (1) 
0

>  <SCORE.INTRA.VDW>  (1) 
1.22499

>  <SCORE.INTRA.VDW.0>  (1) 
-0.371802

>  <SCORE.INTRA.norm>  (1) 
-0.102527

>  <SCORE.RESTR>  (1) 
0

>  <SCORE.RESTR.CAVITY>  (1) 
0

>  <SCORE.RESTR.norm>  (1) 
0

>  <SCORE.SYSTEM>  (1) 
0

>  <SCORE.SYSTEM.CONST>  (1) 
0

>  <SCORE.SYSTEM.DIHEDRAL>  (1) 
0

>  <SCORE.SYSTEM.norm>  (1) 
0

>  <SCORE.heavy>  (1) 
11

>  <SCORE.norm>  (1) 
-0.230457

>  <TETHERED ATOMS>  (1) 
2,3,4,5,6,11,10,9,7,8

>  <skeledock_score>  (1) 
60

$$$$
