F309
     RDKit          3D

 15 15  0  0  0  0  0  0  0  0999 V2000
  -18.7529   13.2258   28.7052 C   0  0  0  0  0  0  0  0  0  0  0  0
  -19.1495   14.5631   28.1572 C   0  0  0  0  0  0  0  0  0  0  0  0
  -18.2594   15.6488   28.1145 C   0  0  0  0  0  0  0  0  0  0  0  0
  -18.8134   16.8113   27.5977 C   0  0  0  0  0  0  0  0  0  0  0  0
  -20.4098   16.4931   27.1882 S   0  0  0  0  0  0  0  0  0  0  0  0
  -20.4198   14.8767   27.6594 C   0  0  0  0  0  0  0  0  0  0  0  0
  -21.5853   13.9868   27.5211 C   0  0  0  0  0  0  0  0  0  0  0  0
  -22.6673   14.4411   27.0621 O   0  0  0  0  0  0  0  0  0  0  0  0
  -21.5021   12.6445   27.8740 O   0  0  0  0  0  0  0  0  0  0  0  0
  -19.4146   12.9574   29.5552 H   0  0  0  0  0  0  0  0  0  0  0  0
  -17.7036   13.2410   29.0691 H   0  0  0  0  0  0  0  0  0  0  0  0
  -18.8350   12.4553   27.9106 H   0  0  0  0  0  0  0  0  0  0  0  0
  -17.2345   15.5948   28.4585 H   0  0  0  0  0  0  0  0  0  0  0  0
  -18.3029   17.7577   27.4812 H   0  0  0  0  0  0  0  0  0  0  0  0
  -22.2777   12.0140   27.7089 H   0  0  0  0  0  0  0  0  0  0  0  0
  1  2  1  0
  2  3  1  0
  3  4  2  0
  4  5  1  0
  5  6  1  0
  6  7  1  0
  7  8  2  0
  7  9  1  0
  2  6  2  0
  1 10  1  0
  1 11  1  0
  1 12  1  0
  3 13  1  0
  4 14  1  0
  9 15  1  0
M  END
>  <CHROM.1>  (1) 
179.24091243,-174.93048420,2.65512116,0.31516222,2.86301575

>  <Name>  (1) 
F309

>  <RI>  (1) 
2.83287e+07

>  <Rbt.Current_Directory>  (1) 
/data/out

>  <Rbt.Executable>  (1) 
rbdock ($Id: //depot/dev/client3/rdock/2013.1/src/exe/rbdock.cxx#4 $)

>  <Rbt.Library>  (1) 
libRbt.so (2013.1, Build901 2013/11/27)

>  <Rbt.Parameter_File>  (1) 
/python_libraries/phenodiscovery/docking/templates/RDOCK_TETHER.conf

>  <Rbt.Receptor>  (1) 
/data/out/rdock-opt/grid/rdock-grid.prm

>  <SCORE>  (1) 
-4.5924

>  <SCORE.INTER>  (1) 
-4.61952

>  <SCORE.INTER.CONST>  (1) 
1

>  <SCORE.INTER.POLAR>  (1) 
-0.795805

>  <SCORE.INTER.REPUL>  (1) 
0

>  <SCORE.INTER.ROT>  (1) 
1

>  <SCORE.INTER.VDW>  (1) 
-8.31378

>  <SCORE.INTER.norm>  (1) 
-0.513279

>  <SCORE.INTRA>  (1) 
0.0271136

>  <SCORE.INTRA.DIHEDRAL>  (1) 
0.0364879

>  <SCORE.INTRA.DIHEDRAL.0>  (1) 
0.130847

>  <SCORE.INTRA.POLAR>  (1) 
0

>  <SCORE.INTRA.POLAR.0>  (1) 
0

>  <SCORE.INTRA.REPUL>  (1) 
0

>  <SCORE.INTRA.REPUL.0>  (1) 
0

>  <SCORE.INTRA.VDW>  (1) 
0.00886964

>  <SCORE.INTRA.VDW.0>  (1) 
-0.700143

>  <SCORE.INTRA.norm>  (1) 
0.00301262

>  <SCORE.RESTR>  (1) 
0

>  <SCORE.RESTR.CAVITY>  (1) 
0

>  <SCORE.RESTR.norm>  (1) 
0

>  <SCORE.SYSTEM>  (1) 
0

>  <SCORE.SYSTEM.CONST>  (1) 
0

>  <SCORE.SYSTEM.DIHEDRAL>  (1) 
0

>  <SCORE.SYSTEM.norm>  (1) 
0

>  <SCORE.heavy>  (1) 
9

>  <SCORE.norm>  (1) 
-0.510267

>  <TETHERED ATOMS>  (1) 
7,6,9,2,1,3

>  <skeledock_score>  (1) 
9

$$$$
