F709
     RDKit          3D

 29 30  0  0  0  0  0  0  0  0999 V2000
  -17.7627   10.2347   23.5999 N   0  0  0  0  0  0  0  0  0  0  0  0
  -18.3647   11.5196   23.4169 C   0  0  0  0  0  0  0  0  0  0  0  0
  -18.7056   11.8707   22.2549 O   0  0  0  0  0  0  0  0  0  0  0  0
  -18.5856   12.4077   24.5335 N   0  0  0  0  0  0  0  0  0  0  0  0
  -17.8729   12.1885   25.8019 C   0  0  0  0  0  0  0  0  0  0  0  0
  -17.9410   13.4187   26.7136 C   0  0  0  0  0  0  0  0  0  0  0  0
  -19.3230   13.9034   26.8304 N   0  0  0  0  0  0  0  0  0  0  0  0
  -20.2041   13.8918   25.6513 C   0  0  0  0  0  0  0  0  0  0  0  0
  -19.4257   13.6017   24.3649 C   0  0  0  0  0  0  0  0  0  0  0  0
  -19.7408   14.5659   28.0428 C   0  0  0  0  0  0  0  0  0  0  0  0
  -18.8727   15.0470   28.8215 O   0  0  0  0  0  0  0  0  0  0  0  0
  -21.1658   14.7094   28.3967 C   0  0  0  0  0  0  0  0  0  0  0  0
  -22.1388   13.7441   28.2246 C   0  0  0  0  0  0  0  0  0  0  0  0
  -23.3087   14.3074   28.6866 C   0  0  0  0  0  0  0  0  0  0  0  0
  -22.9816   15.5809   29.1041 C   0  0  0  0  0  0  0  0  0  0  0  0
  -21.6992   15.7905   28.9179 O   0  0  0  0  0  0  0  0  0  0  0  0
  -17.5869    9.6203   22.7742 H   0  0  0  0  0  0  0  0  0  0  0  0
  -17.5244    9.8668   24.5463 H   0  0  0  0  0  0  0  0  0  0  0  0
  -18.3250   11.3202   26.3282 H   0  0  0  0  0  0  0  0  0  0  0  0
  -16.8024   11.9667   25.5998 H   0  0  0  0  0  0  0  0  0  0  0  0
  -17.5359   13.1423   27.7118 H   0  0  0  0  0  0  0  0  0  0  0  0
  -17.3061   14.2281   26.2922 H   0  0  0  0  0  0  0  0  0  0  0  0
  -20.9796   13.1072   25.7823 H   0  0  0  0  0  0  0  0  0  0  0  0
  -20.7055   14.8783   25.5423 H   0  0  0  0  0  0  0  0  0  0  0  0
  -18.7806   14.4705   24.1112 H   0  0  0  0  0  0  0  0  0  0  0  0
  -20.1586   13.4594   23.5410 H   0  0  0  0  0  0  0  0  0  0  0  0
  -22.0136   12.7493   27.8174 H   0  0  0  0  0  0  0  0  0  0  0  0
  -24.2864   13.8455   28.7128 H   0  0  0  0  0  0  0  0  0  0  0  0
  -23.6652   16.3070   29.5230 H   0  0  0  0  0  0  0  0  0  0  0  0
  1  2  1  0
  2  3  2  0
  2  4  1  0
  4  5  1  0
  5  6  1  0
  6  7  1  0
  7  8  1  0
  8  9  1  0
  7 10  1  0
 10 11  2  0
 10 12  1  0
 12 13  2  0
 13 14  1  0
 14 15  2  0
 15 16  1  0
  9  4  1  0
 16 12  1  0
  1 17  1  0
  1 18  1  0
  5 19  1  0
  5 20  1  0
  6 21  1  0
  6 22  1  0
  8 23  1  0
  8 24  1  0
  9 25  1  0
  9 26  1  0
 13 27  1  0
 14 28  1  0
 15 29  1  0
M  END
>  <CHROM.1>  (1) 
40.24678419,-2.33693197,0.02385917,-2.10872442

>  <Name>  (1) 
F709

>  <RI>  (1) 
1.7375e+07

>  <Rbt.Current_Directory>  (1) 
/data/out

>  <Rbt.Executable>  (1) 
rbdock ($Id: //depot/dev/client3/rdock/2013.1/src/exe/rbdock.cxx#4 $)

>  <Rbt.Library>  (1) 
libRbt.so (2013.1, Build901 2013/11/27)

>  <Rbt.Parameter_File>  (1) 
/python_libraries/phenodiscovery/docking/templates/RDOCK_TETHER.conf

>  <Rbt.Receptor>  (1) 
/data/out/rdock-opt/grid/rdock-grid.prm

>  <SCORE>  (1) 
-4.75191

>  <SCORE.INTER>  (1) 
-6.86632

>  <SCORE.INTER.CONST>  (1) 
1

>  <SCORE.INTER.POLAR>  (1) 
-0.575937

>  <SCORE.INTER.REPUL>  (1) 
0

>  <SCORE.INTER.ROT>  (1) 
1

>  <SCORE.INTER.VDW>  (1) 
-11.3081

>  <SCORE.INTER.norm>  (1) 
-0.429145

>  <SCORE.INTRA>  (1) 
2.11442

>  <SCORE.INTRA.DIHEDRAL>  (1) 
3.86156

>  <SCORE.INTRA.DIHEDRAL.0>  (1) 
0.892361

>  <SCORE.INTRA.POLAR>  (1) 
0

>  <SCORE.INTRA.POLAR.0>  (1) 
0

>  <SCORE.INTRA.REPUL>  (1) 
0

>  <SCORE.INTRA.REPUL.0>  (1) 
0

>  <SCORE.INTRA.VDW>  (1) 
0.183638

>  <SCORE.INTRA.VDW.0>  (1) 
-0.80396

>  <SCORE.INTRA.norm>  (1) 
0.132151

>  <SCORE.RESTR>  (1) 
0

>  <SCORE.RESTR.CAVITY>  (1) 
0

>  <SCORE.RESTR.norm>  (1) 
0

>  <SCORE.SYSTEM>  (1) 
0

>  <SCORE.SYSTEM.CONST>  (1) 
0

>  <SCORE.SYSTEM.DIHEDRAL>  (1) 
0

>  <SCORE.SYSTEM.norm>  (1) 
0

>  <SCORE.heavy>  (1) 
16

>  <SCORE.norm>  (1) 
-0.296994

>  <TETHERED ATOMS>  (1) 
10,12,16,15,14,4,5,6,7,9,13

>  <skeledock_score>  (1) 
56

$$$$
