F126
     RDKit          3D

 23 23  0  0  0  0  0  0  0  0999 V2000
  -18.5075   13.5671   28.2439 C   0  0  0  0  0  0  0  0  0  0  0  0
  -19.3791   14.8196   28.1238 C   0  0  0  0  0  0  0  0  0  0  0  0
  -19.2583   15.4440   26.7299 C   0  0  0  0  0  0  0  0  0  0  0  0
  -20.8128   14.4911   28.4391 C   0  0  0  0  0  0  0  0  0  0  0  0
  -21.2209   13.1970   28.4416 N   0  0  0  0  0  0  0  0  0  0  0  0
  -22.5092   12.8718   28.7079 C   0  0  0  0  0  0  0  0  0  0  0  0
  -23.4452   13.8690   28.9886 C   0  0  0  0  0  0  0  0  0  0  0  0
  -25.0901   13.3706   29.3752 Cl  0  0  0  0  0  0  0  0  0  0  0  0
  -23.0140   15.2148   28.9850 C   0  0  0  0  0  0  0  0  0  0  0  0
  -21.7075   15.4807   28.7081 N   0  0  0  0  0  0  0  0  0  0  0  0
  -23.9198   16.3557   29.2691 C   0  0  0  0  0  0  0  0  0  0  0  0
  -23.5062   17.3695   29.8916 O   0  0  0  0  0  0  0  0  0  0  0  0
  -25.2883   16.3125   28.8602 N   0  0  0  0  0  0  0  0  0  0  0  0
  -18.5922   13.1399   29.2662 H   0  0  0  0  0  0  0  0  0  0  0  0
  -17.4422   13.8246   28.0627 H   0  0  0  0  0  0  0  0  0  0  0  0
  -18.8194   12.7968   27.5058 H   0  0  0  0  0  0  0  0  0  0  0  0
  -19.0077   15.5631   28.8641 H   0  0  0  0  0  0  0  0  0  0  0  0
  -19.8916   16.3547   26.6642 H   0  0  0  0  0  0  0  0  0  0  0  0
  -18.2052   15.7388   26.5344 H   0  0  0  0  0  0  0  0  0  0  0  0
  -19.5791   14.7256   25.9447 H   0  0  0  0  0  0  0  0  0  0  0  0
  -22.8047   11.8307   28.7085 H   0  0  0  0  0  0  0  0  0  0  0  0
  -25.6709   15.5019   28.3249 H   0  0  0  0  0  0  0  0  0  0  0  0
  -25.9261   17.1095   29.0798 H   0  0  0  0  0  0  0  0  0  0  0  0
  1  2  1  0
  2  3  1  0
  2  4  1  0
  4  5  2  0
  5  6  1  0
  6  7  2  0
  7  8  1  0
  7  9  1  0
  9 10  2  0
  9 11  1  0
 11 12  2  0
 11 13  1  0
  4 10  1  0
  1 14  1  0
  1 15  1  0
  1 16  1  0
  2 17  1  0
  3 18  1  0
  3 19  1  0
  3 20  1  0
  6 21  1  0
 13 22  1  0
 13 23  1  0
M  END
>  <CHROM.1>  (1) 
-16.39204638,144.49044067,-0.33265532,0.14519962,-0.00051689

>  <Name>  (1) 
F126

>  <RI>  (1) 
4.12588e+07

>  <Rbt.Current_Directory>  (1) 
/data/out

>  <Rbt.Executable>  (1) 
rbdock ($Id: //depot/dev/client3/rdock/2013.1/src/exe/rbdock.cxx#4 $)

>  <Rbt.Library>  (1) 
libRbt.so (2013.1, Build901 2013/11/27)

>  <Rbt.Parameter_File>  (1) 
/python_libraries/phenodiscovery/docking/templates/RDOCK_TETHER.conf

>  <Rbt.Receptor>  (1) 
/data/out/rdock-opt/grid/rdock-grid.prm

>  <SCORE>  (1) 
-1.16127

>  <SCORE.INTER>  (1) 
-3.0621

>  <SCORE.INTER.CONST>  (1) 
1

>  <SCORE.INTER.POLAR>  (1) 
-0.174285

>  <SCORE.INTER.REPUL>  (1) 
0

>  <SCORE.INTER.ROT>  (1) 
2

>  <SCORE.INTER.VDW>  (1) 
-9.86953

>  <SCORE.INTER.norm>  (1) 
-0.235546

>  <SCORE.INTRA>  (1) 
1.90083

>  <SCORE.INTRA.DIHEDRAL>  (1) 
3.17971

>  <SCORE.INTRA.DIHEDRAL.0>  (1) 
1.75118

>  <SCORE.INTRA.POLAR>  (1) 
0

>  <SCORE.INTRA.POLAR.0>  (1) 
0

>  <SCORE.INTRA.REPUL>  (1) 
0

>  <SCORE.INTRA.REPUL.0>  (1) 
0

>  <SCORE.INTRA.VDW>  (1) 
0.310979

>  <SCORE.INTRA.VDW.0>  (1) 
-1.32528

>  <SCORE.INTRA.norm>  (1) 
0.146218

>  <SCORE.RESTR>  (1) 
0

>  <SCORE.RESTR.CAVITY>  (1) 
0

>  <SCORE.RESTR.norm>  (1) 
0

>  <SCORE.SYSTEM>  (1) 
0

>  <SCORE.SYSTEM.CONST>  (1) 
0

>  <SCORE.SYSTEM.DIHEDRAL>  (1) 
0

>  <SCORE.SYSTEM.norm>  (1) 
0

>  <SCORE.heavy>  (1) 
13

>  <SCORE.norm>  (1) 
-0.0893283

>  <TETHERED ATOMS>  (1) 
2,4,10,9,11,13,1,7,6

>  <skeledock_score>  (1) 
43

$$$$
