F374
     RDKit          3D

 18 18  0  0  0  0  0  0  0  0999 V2000
  -24.8508   19.4470   28.8480 C   0  0  0  0  0  0  0  0  0  0  0  0
  -24.8846   18.5847   30.1054 C   0  0  0  0  0  0  0  0  0  0  0  0
  -25.0496   17.1739   29.7602 N   0  0  0  0  0  0  0  0  0  0  0  0
  -23.9788   16.3779   29.2305 C   0  0  0  0  0  0  0  0  0  0  0  0
  -22.8287   16.8754   29.0891 O   0  0  0  0  0  0  0  0  0  0  0  0
  -24.2108   14.9753   28.8558 C   0  0  0  0  0  0  0  0  0  0  0  0
  -23.2862   14.0895   28.3474 C   0  0  0  0  0  0  0  0  0  0  0  0
  -23.9389   12.9330   28.1533 N   0  0  0  0  0  0  0  0  0  0  0  0
  -25.1983   13.1014   28.5233 N   0  0  0  0  0  0  0  0  0  0  0  0
  -25.3944   14.3385   28.9567 N   0  0  0  0  0  0  0  0  0  0  0  0
  -24.7761   20.5175   29.1329 H   0  0  0  0  0  0  0  0  0  0  0  0
  -25.7805   19.2973   28.2591 H   0  0  0  0  0  0  0  0  0  0  0  0
  -23.9745   19.1862   28.2187 H   0  0  0  0  0  0  0  0  0  0  0  0
  -23.9524   18.7263   30.6939 H   0  0  0  0  0  0  0  0  0  0  0  0
  -25.7404   18.9103   30.7355 H   0  0  0  0  0  0  0  0  0  0  0  0
  -25.9739   16.7258   29.9522 H   0  0  0  0  0  0  0  0  0  0  0  0
  -22.2390   14.2635   28.1365 H   0  0  0  0  0  0  0  0  0  0  0  0
  -23.5412   12.0445   27.7770 H   0  0  0  0  0  0  0  0  0  0  0  0
  1  2  1  0
  2  3  1  0
  3  4  1  0
  4  5  2  0
  4  6  1  0
  6  7  2  0
  7  8  1  0
  8  9  1  0
  9 10  2  0
 10  6  1  0
  1 11  1  0
  1 12  1  0
  1 13  1  0
  2 14  1  0
  2 15  1  0
  3 16  1  0
  7 17  1  0
  8 18  1  0
M  END
>  <CHROM.1>  (1) 
75.49711784,-179.49057827,1.31024111,-0.24235058,-2.84060583

>  <Name>  (1) 
F374

>  <RI>  (1) 
1.13507e+07

>  <Rbt.Current_Directory>  (1) 
/data/out

>  <Rbt.Executable>  (1) 
rbdock ($Id: //depot/dev/client3/rdock/2013.1/src/exe/rbdock.cxx#4 $)

>  <Rbt.Library>  (1) 
libRbt.so (2013.1, Build901 2013/11/27)

>  <Rbt.Parameter_File>  (1) 
/python_libraries/phenodiscovery/docking/templates/RDOCK_TETHER.conf

>  <Rbt.Receptor>  (1) 
/data/out/rdock-opt/grid/rdock-grid.prm

>  <SCORE>  (1) 
0.376711

>  <SCORE.INTER>  (1) 
0.385187

>  <SCORE.INTER.CONST>  (1) 
1

>  <SCORE.INTER.POLAR>  (1) 
-0.848528

>  <SCORE.INTER.REPUL>  (1) 
0

>  <SCORE.INTER.ROT>  (1) 
2

>  <SCORE.INTER.VDW>  (1) 
-4.12982

>  <SCORE.INTER.norm>  (1) 
0.0385187

>  <SCORE.INTRA>  (1) 
-0.00847583

>  <SCORE.INTRA.DIHEDRAL>  (1) 
0.00721989

>  <SCORE.INTRA.DIHEDRAL.0>  (1) 
1.25195

>  <SCORE.INTRA.POLAR>  (1) 
0

>  <SCORE.INTRA.POLAR.0>  (1) 
0

>  <SCORE.INTRA.REPUL>  (1) 
0

>  <SCORE.INTRA.REPUL.0>  (1) 
0

>  <SCORE.INTRA.VDW>  (1) 
-0.0120858

>  <SCORE.INTRA.VDW.0>  (1) 
-1.06583

>  <SCORE.INTRA.norm>  (1) 
-0.000847583

>  <SCORE.RESTR>  (1) 
0

>  <SCORE.RESTR.CAVITY>  (1) 
0

>  <SCORE.RESTR.norm>  (1) 
0

>  <SCORE.SYSTEM>  (1) 
0

>  <SCORE.SYSTEM.CONST>  (1) 
0

>  <SCORE.SYSTEM.DIHEDRAL>  (1) 
0

>  <SCORE.SYSTEM.norm>  (1) 
0

>  <SCORE.heavy>  (1) 
10

>  <SCORE.norm>  (1) 
0.0376711

>  <TETHERED ATOMS>  (1) 
6,8,3,7,4

>  <skeledock_score>  (1) 
21

$$$$
