F740
     RDKit          3D

 26 28  0  0  0  0  0  0  0  0999 V2000
  -18.1551   13.1030   27.8741 O   0  0  0  0  0  0  0  0  0  0  0  0
  -18.9590   14.0717   27.9633 C   0  0  0  0  0  0  0  0  0  0  0  0
  -19.2316   14.8714   26.8034 N   0  0  0  0  0  0  0  0  0  0  0  0
  -18.5163   14.6431   25.5510 C   0  0  0  0  0  0  0  0  0  0  0  0
  -19.3944   14.8305   24.3239 C   0  0  0  0  0  0  0  0  0  0  0  0
  -18.9988   13.4327   24.7695 C   0  0  0  0  0  0  0  0  0  0  0  0
  -19.5551   14.3963   29.2785 C   0  0  0  0  0  0  0  0  0  0  0  0
  -18.9394   13.9853   30.4922 C   0  0  0  0  0  0  0  0  0  0  0  0
  -19.5302   14.2871   31.7330 C   0  0  0  0  0  0  0  0  0  0  0  0
  -20.7255   14.9974   31.7287 C   0  0  0  0  0  0  0  0  0  0  0  0
  -21.4879   15.4058   32.8059 O   0  0  0  0  0  0  0  0  0  0  0  0
  -22.6305   16.1089   32.2982 C   0  0  0  0  0  0  0  0  0  0  0  0
  -22.4817   16.0823   30.8716 O   0  0  0  0  0  0  0  0  0  0  0  0
  -21.3167   15.4006   30.5770 C   0  0  0  0  0  0  0  0  0  0  0  0
  -20.7647   15.1283   29.3298 C   0  0  0  0  0  0  0  0  0  0  0  0
  -19.9154   15.6586   26.8515 H   0  0  0  0  0  0  0  0  0  0  0  0
  -17.4515   14.9471   25.4665 H   0  0  0  0  0  0  0  0  0  0  0  0
  -18.8528   15.1882   23.4231 H   0  0  0  0  0  0  0  0  0  0  0  0
  -20.4570   15.0859   24.5262 H   0  0  0  0  0  0  0  0  0  0  0  0
  -18.2224   12.9595   24.1323 H   0  0  0  0  0  0  0  0  0  0  0  0
  -19.8298   12.8555   25.2287 H   0  0  0  0  0  0  0  0  0  0  0  0
  -17.9971   13.4549   30.4866 H   0  0  0  0  0  0  0  0  0  0  0  0
  -19.0675   13.9810   32.6619 H   0  0  0  0  0  0  0  0  0  0  0  0
  -23.5650   15.5884   32.5955 H   0  0  0  0  0  0  0  0  0  0  0  0
  -22.6300   17.1571   32.6639 H   0  0  0  0  0  0  0  0  0  0  0  0
  -21.2684   15.4599   28.4305 H   0  0  0  0  0  0  0  0  0  0  0  0
  1  2  2  0
  2  3  1  0
  3  4  1  0
  4  5  1  0
  5  6  1  0
  2  7  1  0
  7  8  2  0
  8  9  1  0
  9 10  2  0
 10 11  1  0
 11 12  1  0
 12 13  1  0
 13 14  1  0
 14 15  2  0
  6  4  1  0
  7 15  1  0
 10 14  1  0
  3 16  1  0
  4 17  1  0
  5 18  1  0
  5 19  1  0
  6 20  1  0
  6 21  1  0
  8 22  1  0
  9 23  1  0
 12 24  1  0
 12 25  1  0
 15 26  1  0
M  END
>  <CHROM.1>  (1) 
142.92475207,21.89452131,-1.85622751,0.60782406,-1.49057038

>  <Name>  (1) 
F740

>  <RI>  (1) 
9.58013e+06

>  <Rbt.Current_Directory>  (1) 
/data/out

>  <Rbt.Executable>  (1) 
rbdock ($Id: //depot/dev/client3/rdock/2013.1/src/exe/rbdock.cxx#4 $)

>  <Rbt.Library>  (1) 
libRbt.so (2013.1, Build901 2013/11/27)

>  <Rbt.Parameter_File>  (1) 
/python_libraries/phenodiscovery/docking/templates/RDOCK_TETHER.conf

>  <Rbt.Receptor>  (1) 
/data/out/rdock-opt/grid/rdock-grid.prm

>  <SCORE>  (1) 
0.599369

>  <SCORE.INTER>  (1) 
0.710606

>  <SCORE.INTER.CONST>  (1) 
1

>  <SCORE.INTER.POLAR>  (1) 
0

>  <SCORE.INTER.REPUL>  (1) 
0

>  <SCORE.INTER.ROT>  (1) 
2

>  <SCORE.INTER.VDW>  (1) 
-6.68939

>  <SCORE.INTER.norm>  (1) 
0.0473737

>  <SCORE.INTRA>  (1) 
-0.111237

>  <SCORE.INTRA.DIHEDRAL>  (1) 
-0.973343

>  <SCORE.INTRA.DIHEDRAL.0>  (1) 
4.16517

>  <SCORE.INTRA.POLAR>  (1) 
0

>  <SCORE.INTRA.POLAR.0>  (1) 
0

>  <SCORE.INTRA.REPUL>  (1) 
0

>  <SCORE.INTRA.REPUL.0>  (1) 
0

>  <SCORE.INTRA.VDW>  (1) 
0.375434

>  <SCORE.INTRA.VDW.0>  (1) 
-1.34559

>  <SCORE.INTRA.norm>  (1) 
-0.00741581

>  <SCORE.RESTR>  (1) 
0

>  <SCORE.RESTR.CAVITY>  (1) 
0

>  <SCORE.RESTR.norm>  (1) 
0

>  <SCORE.SYSTEM>  (1) 
0

>  <SCORE.SYSTEM.CONST>  (1) 
0

>  <SCORE.SYSTEM.DIHEDRAL>  (1) 
0

>  <SCORE.SYSTEM.norm>  (1) 
0

>  <SCORE.heavy>  (1) 
15

>  <SCORE.norm>  (1) 
0.0399579

>  <TETHERED ATOMS>  (1) 
2,7,15,14,3,8,4,6,5

>  <skeledock_score>  (1) 
32

$$$$
