F503
     RDKit          3D

 29 30  0  0  0  0  0  0  0  0999 V2000
  -18.8509   10.9798   24.5337 C   0  0  0  0  0  0  0  0  0  0  0  0
  -19.6019   12.1694   24.9214 N   0  0  0  0  0  0  0  0  0  0  0  0
  -19.1040   13.1496   25.8433 C   0  0  0  0  0  0  0  0  0  0  0  0
  -17.9637   13.0201   26.3655 O   0  0  0  0  0  0  0  0  0  0  0  0
  -19.9199   14.3694   26.1586 C   0  0  0  0  0  0  0  0  0  0  0  0
  -20.9670   14.2958   27.2847 C   0  0  0  0  0  0  0  0  0  0  0  0
  -20.3714   14.6794   28.6179 C   0  0  0  0  0  0  0  0  0  0  0  0
  -19.4852   13.8040   29.2701 C   0  0  0  0  0  0  0  0  0  0  0  0
  -18.9413   14.1436   30.5124 C   0  0  0  0  0  0  0  0  0  0  0  0
  -19.2823   15.3546   31.1187 C   0  0  0  0  0  0  0  0  0  0  0  0
  -20.1669   16.2290   30.4834 C   0  0  0  0  0  0  0  0  0  0  0  0
  -20.7129   15.8973   29.2390 C   0  0  0  0  0  0  0  0  0  0  0  0
  -21.5684   16.7662   28.6432 F   0  0  0  0  0  0  0  0  0  0  0  0
  -19.2542   15.7182   25.9122 C   0  0  0  0  0  0  0  0  0  0  0  0
  -20.3042   15.2021   24.9381 C   0  0  0  0  0  0  0  0  0  0  0  0
  -18.6747   10.9980   23.4381 H   0  0  0  0  0  0  0  0  0  0  0  0
  -17.8708   10.9254   25.0514 H   0  0  0  0  0  0  0  0  0  0  0  0
  -19.4392   10.0743   24.7899 H   0  0  0  0  0  0  0  0  0  0  0  0
  -20.5403   12.3160   24.4859 H   0  0  0  0  0  0  0  0  0  0  0  0
  -21.3694   13.2614   27.3433 H   0  0  0  0  0  0  0  0  0  0  0  0
  -21.8375   14.9480   27.0557 H   0  0  0  0  0  0  0  0  0  0  0  0
  -19.2205   12.8556   28.8193 H   0  0  0  0  0  0  0  0  0  0  0  0
  -18.2583   13.4651   31.0069 H   0  0  0  0  0  0  0  0  0  0  0  0
  -18.8617   15.6151   32.0814 H   0  0  0  0  0  0  0  0  0  0  0  0
  -20.4296   17.1665   30.9569 H   0  0  0  0  0  0  0  0  0  0  0  0
  -18.2200   15.6847   25.5071 H   0  0  0  0  0  0  0  0  0  0  0  0
  -19.6114   16.5580   26.5450 H   0  0  0  0  0  0  0  0  0  0  0  0
  -19.8727   14.8822   23.9651 H   0  0  0  0  0  0  0  0  0  0  0  0
  -21.2630   15.7604   24.9934 H   0  0  0  0  0  0  0  0  0  0  0  0
  1  2  1  0
  2  3  1  0
  3  4  2  0
  3  5  1  0
  5  6  1  0
  6  7  1  0
  7  8  2  0
  8  9  1  0
  9 10  2  0
 10 11  1  0
 11 12  2  0
 12 13  1  0
  5 14  1  0
 14 15  1  0
 15  5  1  0
  7 12  1  0
  1 16  1  0
  1 17  1  0
  1 18  1  0
  2 19  1  0
  6 20  1  0
  6 21  1  0
  8 22  1  0
  9 23  1  0
 10 24  1  0
 11 25  1  0
 14 26  1  0
 14 27  1  0
 15 28  1  0
 15 29  1  0
M  END
>  <CHROM.1>  (1) 
86.84913201,90.03097488,-72.50480808,1.36649406,0.63350237,-1.88552003

>  <Name>  (1) 
F503

>  <RI>  (1) 
2.23321e+07

>  <Rbt.Current_Directory>  (1) 
/data/out

>  <Rbt.Executable>  (1) 
rbdock ($Id: //depot/dev/client3/rdock/2013.1/src/exe/rbdock.cxx#4 $)

>  <Rbt.Library>  (1) 
libRbt.so (2013.1, Build901 2013/11/27)

>  <Rbt.Parameter_File>  (1) 
/python_libraries/phenodiscovery/docking/templates/RDOCK_TETHER.conf

>  <Rbt.Receptor>  (1) 
/data/out/rdock-opt/grid/rdock-grid.prm

>  <SCORE>  (1) 
-0.680512

>  <SCORE.INTER>  (1) 
-1.43554

>  <SCORE.INTER.CONST>  (1) 
1

>  <SCORE.INTER.POLAR>  (1) 
0

>  <SCORE.INTER.REPUL>  (1) 
0

>  <SCORE.INTER.ROT>  (1) 
3

>  <SCORE.INTER.VDW>  (1) 
-9.83554

>  <SCORE.INTER.norm>  (1) 
-0.0957026

>  <SCORE.INTRA>  (1) 
0.755026

>  <SCORE.INTRA.DIHEDRAL>  (1) 
0.25761

>  <SCORE.INTRA.DIHEDRAL.0>  (1) 
5.18455

>  <SCORE.INTRA.POLAR>  (1) 
0

>  <SCORE.INTRA.POLAR.0>  (1) 
0

>  <SCORE.INTRA.REPUL>  (1) 
0

>  <SCORE.INTRA.REPUL.0>  (1) 
0

>  <SCORE.INTRA.VDW>  (1) 
0.626221

>  <SCORE.INTRA.VDW.0>  (1) 
-2.85268

>  <SCORE.INTRA.norm>  (1) 
0.0503351

>  <SCORE.RESTR>  (1) 
0

>  <SCORE.RESTR.CAVITY>  (1) 
0

>  <SCORE.RESTR.norm>  (1) 
0

>  <SCORE.SYSTEM>  (1) 
0

>  <SCORE.SYSTEM.CONST>  (1) 
0

>  <SCORE.SYSTEM.DIHEDRAL>  (1) 
0

>  <SCORE.SYSTEM.norm>  (1) 
0

>  <SCORE.heavy>  (1) 
15

>  <SCORE.norm>  (1) 
-0.0453675

>  <TETHERED ATOMS>  (1) 
6,7,12,11,10,8,9,3,5,4

>  <skeledock_score>  (1) 
55

$$$$
