F535
     RDKit          3D

 22 23  0  0  0  0  0  0  0  0999 V2000
  -18.9231   11.7932   25.7144 C   0  0  0  0  0  0  0  0  0  0  0  0
  -19.6013   12.6389   26.6978 N   0  0  0  0  0  0  0  0  0  0  0  0
  -19.5915   14.0356   26.2517 C   0  0  0  0  0  0  0  0  0  0  0  0
  -20.2542   14.9277   27.2604 C   0  0  0  0  0  0  0  0  0  0  0  0
  -21.2981   15.7519   27.0053 N   0  0  0  0  0  0  0  0  0  0  0  0
  -21.5981   16.3817   28.1392 N   0  0  0  0  0  0  0  0  0  0  0  0
  -20.7295   15.9265   29.0609 C   0  0  0  0  0  0  0  0  0  0  0  0
  -20.6514   16.3043   30.3988 C   0  0  0  0  0  0  0  0  0  0  0  0
  -19.6538   15.6993   31.1840 C   0  0  0  0  0  0  0  0  0  0  0  0
  -18.7781   14.7491   30.6188 C   0  0  0  0  0  0  0  0  0  0  0  0
  -18.9077   14.4111   29.2634 C   0  0  0  0  0  0  0  0  0  0  0  0
  -19.8853   15.0235   28.5478 N   0  0  0  0  0  0  0  0  0  0  0  0
  -19.4110   11.8720   24.7176 H   0  0  0  0  0  0  0  0  0  0  0  0
  -18.9698   10.7345   26.0461 H   0  0  0  0  0  0  0  0  0  0  0  0
  -17.8523   12.0789   25.6319 H   0  0  0  0  0  0  0  0  0  0  0  0
  -20.5982   12.3214   26.7491 H   0  0  0  0  0  0  0  0  0  0  0  0
  -18.5447   14.3893   26.1219 H   0  0  0  0  0  0  0  0  0  0  0  0
  -20.1267   14.1329   25.2806 H   0  0  0  0  0  0  0  0  0  0  0  0
  -21.3302   17.0353   30.8188 H   0  0  0  0  0  0  0  0  0  0  0  0
  -19.5579   15.9645   32.2288 H   0  0  0  0  0  0  0  0  0  0  0  0
  -18.0114   14.2851   31.2253 H   0  0  0  0  0  0  0  0  0  0  0  0
  -18.2464   13.6863   28.8056 H   0  0  0  0  0  0  0  0  0  0  0  0
  1  2  1  0
  2  3  1  0
  3  4  1  0
  4  5  2  0
  5  6  1  0
  6  7  2  0
  7  8  1  0
  8  9  2  0
  9 10  1  0
 10 11  2  0
 11 12  1  0
 12  4  1  0
 12  7  1  0
  1 13  1  0
  1 14  1  0
  1 15  1  0
  2 16  1  0
  3 17  1  0
  3 18  1  0
  8 19  1  0
  9 20  1  0
 10 21  1  0
 11 22  1  0
M  END
>  <CHROM.1>  (1) 
-178.67932149,-123.86662421,1.79959902,-0.81394624,1.07714331

>  <Name>  (1) 
F535

>  <RI>  (1) 
1.84644e+07

>  <Rbt.Current_Directory>  (1) 
/data/out

>  <Rbt.Executable>  (1) 
rbdock ($Id: //depot/dev/client3/rdock/2013.1/src/exe/rbdock.cxx#4 $)

>  <Rbt.Library>  (1) 
libRbt.so (2013.1, Build901 2013/11/27)

>  <Rbt.Parameter_File>  (1) 
/python_libraries/phenodiscovery/docking/templates/RDOCK_TETHER.conf

>  <Rbt.Receptor>  (1) 
/data/out/rdock-opt/grid/rdock-grid.prm

>  <SCORE>  (1) 
0.430596

>  <SCORE.INTER>  (1) 
0.760378

>  <SCORE.INTER.CONST>  (1) 
1

>  <SCORE.INTER.POLAR>  (1) 
0

>  <SCORE.INTER.REPUL>  (1) 
0

>  <SCORE.INTER.ROT>  (1) 
2

>  <SCORE.INTER.VDW>  (1) 
-6.63962

>  <SCORE.INTER.norm>  (1) 
0.0633648

>  <SCORE.INTRA>  (1) 
-0.329782

>  <SCORE.INTRA.DIHEDRAL>  (1) 
-0.0942464

>  <SCORE.INTRA.DIHEDRAL.0>  (1) 
1.44217

>  <SCORE.INTRA.POLAR>  (1) 
0

>  <SCORE.INTRA.POLAR.0>  (1) 
0

>  <SCORE.INTRA.REPUL>  (1) 
0

>  <SCORE.INTRA.REPUL.0>  (1) 
0

>  <SCORE.INTRA.VDW>  (1) 
-0.282659

>  <SCORE.INTRA.VDW.0>  (1) 
-0.220332

>  <SCORE.INTRA.norm>  (1) 
-0.0274818

>  <SCORE.RESTR>  (1) 
0

>  <SCORE.RESTR.CAVITY>  (1) 
0

>  <SCORE.RESTR.norm>  (1) 
0

>  <SCORE.SYSTEM>  (1) 
0

>  <SCORE.SYSTEM.CONST>  (1) 
0

>  <SCORE.SYSTEM.DIHEDRAL>  (1) 
0

>  <SCORE.SYSTEM.norm>  (1) 
0

>  <SCORE.heavy>  (1) 
12

>  <SCORE.norm>  (1) 
0.035883

>  <TETHERED ATOMS>  (1) 
7,8,9,10,11,1,2,3,4,12,6

>  <skeledock_score>  (1) 
50

$$$$
