F584
     RDKit          3D

 27 28  0  0  0  0  0  0  0  0999 V2000
  -17.7563   12.5843   30.3308 C   0  0  0  0  0  0  0  0  0  0  0  0
  -18.8425   13.5002   30.2501 O   0  0  0  0  0  0  0  0  0  0  0  0
  -18.8655   14.6497   29.4422 C   0  0  0  0  0  0  0  0  0  0  0  0
  -18.3312   15.8716   29.8912 C   0  0  0  0  0  0  0  0  0  0  0  0
  -18.3536   16.9956   29.0688 C   0  0  0  0  0  0  0  0  0  0  0  0
  -18.8870   16.9136   27.7846 C   0  0  0  0  0  0  0  0  0  0  0  0
  -19.4075   15.7042   27.3014 C   0  0  0  0  0  0  0  0  0  0  0  0
  -19.9091   15.6611   25.9542 N   0  0  0  0  0  0  0  0  0  0  0  0
  -19.4739   14.6765   25.0066 C   0  0  0  0  0  0  0  0  0  0  0  0
  -18.9140   15.0583   23.9441 O   0  0  0  0  0  0  0  0  0  0  0  0
  -19.7901   13.2205   25.1738 C   0  0  0  0  0  0  0  0  0  0  0  0
  -19.3315   12.6641   26.5186 C   0  0  0  0  0  0  0  0  0  0  0  0
  -20.0945   13.2941   27.6869 C   0  0  0  0  0  0  0  0  0  0  0  0
  -19.4323   14.5707   28.1477 C   0  0  0  0  0  0  0  0  0  0  0  0
  -16.8497   13.0995   30.7125 H   0  0  0  0  0  0  0  0  0  0  0  0
  -18.0222   11.7682   31.0332 H   0  0  0  0  0  0  0  0  0  0  0  0
  -17.5543   12.1430   29.3319 H   0  0  0  0  0  0  0  0  0  0  0  0
  -17.8976   15.9646   30.8774 H   0  0  0  0  0  0  0  0  0  0  0  0
  -17.9450   17.9329   29.4241 H   0  0  0  0  0  0  0  0  0  0  0  0
  -18.8768   17.7932   27.1529 H   0  0  0  0  0  0  0  0  0  0  0  0
  -20.2237   16.5697   25.5434 H   0  0  0  0  0  0  0  0  0  0  0  0
  -19.2881   12.6405   24.3684 H   0  0  0  0  0  0  0  0  0  0  0  0
  -20.8847   13.0717   25.0516 H   0  0  0  0  0  0  0  0  0  0  0  0
  -19.5313   11.5701   26.5169 H   0  0  0  0  0  0  0  0  0  0  0  0
  -18.2330   12.7959   26.6403 H   0  0  0  0  0  0  0  0  0  0  0  0
  -21.1506   13.5043   27.4090 H   0  0  0  0  0  0  0  0  0  0  0  0
  -20.1456   12.5454   28.5048 H   0  0  0  0  0  0  0  0  0  0  0  0
  1  2  1  0
  2  3  1  0
  3  4  2  0
  4  5  1  0
  5  6  2  0
  6  7  1  0
  7  8  1  0
  8  9  1  0
  9 10  2  0
  9 11  1  0
 11 12  1  0
 12 13  1  0
 13 14  1  0
  3 14  1  0
 14  7  2  0
  1 15  1  0
  1 16  1  0
  1 17  1  0
  4 18  1  0
  5 19  1  0
  6 20  1  0
  8 21  1  0
 11 22  1  0
 11 23  1  0
 12 24  1  0
 12 25  1  0
 13 26  1  0
 13 27  1  0
M  END
>  <CHROM.1>  (1) 
-86.18607089,-0.06870152,1.31051339,3.13056604

>  <Name>  (1) 
F584

>  <RI>  (1) 
1.90227e+07

>  <Rbt.Current_Directory>  (1) 
/data/out

>  <Rbt.Executable>  (1) 
rbdock ($Id: //depot/dev/client3/rdock/2013.1/src/exe/rbdock.cxx#4 $)

>  <Rbt.Library>  (1) 
libRbt.so (2013.1, Build901 2013/11/27)

>  <Rbt.Parameter_File>  (1) 
/python_libraries/phenodiscovery/docking/templates/RDOCK_TETHER.conf

>  <Rbt.Receptor>  (1) 
/data/out/rdock-opt/grid/rdock-grid.prm

>  <SCORE>  (1) 
0.365492

>  <SCORE.INTER>  (1) 
-0.59149

>  <SCORE.INTER.CONST>  (1) 
1

>  <SCORE.INTER.POLAR>  (1) 
0

>  <SCORE.INTER.REPUL>  (1) 
0

>  <SCORE.INTER.ROT>  (1) 
1

>  <SCORE.INTER.VDW>  (1) 
-6.99149

>  <SCORE.INTER.norm>  (1) 
-0.0422493

>  <SCORE.INTRA>  (1) 
0.956982

>  <SCORE.INTRA.DIHEDRAL>  (1) 
4.77058

>  <SCORE.INTRA.DIHEDRAL.0>  (1) 
0.0100364

>  <SCORE.INTRA.POLAR>  (1) 
0

>  <SCORE.INTRA.POLAR.0>  (1) 
0

>  <SCORE.INTRA.REPUL>  (1) 
0

>  <SCORE.INTRA.REPUL.0>  (1) 
0

>  <SCORE.INTRA.VDW>  (1) 
-1.42831

>  <SCORE.INTRA.VDW.0>  (1) 
0.137049

>  <SCORE.INTRA.norm>  (1) 
0.0683558

>  <SCORE.RESTR>  (1) 
0

>  <SCORE.RESTR.CAVITY>  (1) 
0

>  <SCORE.RESTR.norm>  (1) 
0

>  <SCORE.SYSTEM>  (1) 
0

>  <SCORE.SYSTEM.CONST>  (1) 
0

>  <SCORE.SYSTEM.DIHEDRAL>  (1) 
0

>  <SCORE.SYSTEM.norm>  (1) 
0

>  <SCORE.heavy>  (1) 
14

>  <SCORE.norm>  (1) 
0.0261066

>  <TETHERED ATOMS>  (1) 
1,2,3,4,14,13,12,9,11

>  <skeledock_score>  (1) 
38

$$$$
