F95
     RDKit          3D

 27 27  0  0  0  0  0  0  0  0999 V2000
  -23.8976   17.5334   32.8555 C   0  0  0  0  0  0  0  0  0  0  0  0
  -23.8537   16.5936   31.6951 C   0  0  0  0  0  0  0  0  0  0  0  0
  -23.2578   15.4881   31.8086 O   0  0  0  0  0  0  0  0  0  0  0  0
  -24.4876   16.9517   30.4613 N   0  0  0  0  0  0  0  0  0  0  0  0
  -24.4644   16.0585   29.3032 C   0  0  0  0  0  0  0  0  0  0  0  0
  -23.0580   15.6175   28.9917 C   0  0  0  0  0  0  0  0  0  0  0  0
  -22.1165   16.5500   28.5275 C   0  0  0  0  0  0  0  0  0  0  0  0
  -20.8105   16.1480   28.2318 C   0  0  0  0  0  0  0  0  0  0  0  0
  -20.4290   14.8102   28.3998 C   0  0  0  0  0  0  0  0  0  0  0  0
  -21.3688   13.8756   28.8535 C   0  0  0  0  0  0  0  0  0  0  0  0
  -22.6751   14.2761   29.1508 C   0  0  0  0  0  0  0  0  0  0  0  0
  -18.7889   14.3006   28.0106 S   0  0  0  0  0  0  0  0  0  0  0  0
  -18.6426   14.1498   26.5222 O   0  0  0  0  0  0  0  0  0  0  0  0
  -17.8080   15.3345   28.4879 O   0  0  0  0  0  0  0  0  0  0  0  0
  -18.4529   12.7892   28.7788 N   0  0  0  0  0  0  0  0  0  0  0  0
  -24.9537   17.7231   33.1395 H   0  0  0  0  0  0  0  0  0  0  0  0
  -23.4168   18.4934   32.5740 H   0  0  0  0  0  0  0  0  0  0  0  0
  -23.3613   17.1039   33.7283 H   0  0  0  0  0  0  0  0  0  0  0  0
  -24.9693   17.8781   30.3992 H   0  0  0  0  0  0  0  0  0  0  0  0
  -25.1125   15.1797   29.5132 H   0  0  0  0  0  0  0  0  0  0  0  0
  -24.8827   16.5849   28.4180 H   0  0  0  0  0  0  0  0  0  0  0  0
  -22.3964   17.5878   28.3932 H   0  0  0  0  0  0  0  0  0  0  0  0
  -20.0993   16.8793   27.8692 H   0  0  0  0  0  0  0  0  0  0  0  0
  -21.0920   12.8362   28.9754 H   0  0  0  0  0  0  0  0  0  0  0  0
  -23.3856   13.5390   29.5037 H   0  0  0  0  0  0  0  0  0  0  0  0
  -17.4487   12.5694   28.5931 H   0  0  0  0  0  0  0  0  0  0  0  0
  -18.5417   12.9440   29.8080 H   0  0  0  0  0  0  0  0  0  0  0  0
  1  2  1  0
  2  3  2  0
  2  4  1  0
  4  5  1  0
  5  6  1  0
  6  7  2  0
  7  8  1  0
  8  9  2  0
  9 10  1  0
 10 11  2  0
  9 12  1  0
 12 13  2  0
 12 14  2  0
 12 15  1  0
  6 11  1  0
  1 16  1  0
  1 17  1  0
  1 18  1  0
  4 19  1  0
  5 20  1  0
  5 21  1  0
  7 22  1  0
  8 23  1  0
 10 24  1  0
 11 25  1  0
 15 26  1  0
 15 27  1  0
M  END
>  <CHROM.1>  (1) 
-51.60344583,-67.33154475,-78.16107233,-174.99827277,2.51521627,0.08311165
0.45105702

>  <Name>  (1) 
F95

>  <RI>  (1) 
3.77044e+07

>  <Rbt.Current_Directory>  (1) 
/data/out

>  <Rbt.Executable>  (1) 
rbdock ($Id: //depot/dev/client3/rdock/2013.1/src/exe/rbdock.cxx#4 $)

>  <Rbt.Library>  (1) 
libRbt.so (2013.1, Build901 2013/11/27)

>  <Rbt.Parameter_File>  (1) 
/python_libraries/phenodiscovery/docking/templates/RDOCK_TETHER.conf

>  <Rbt.Receptor>  (1) 
/data/out/rdock-opt/grid/rdock-grid.prm

>  <SCORE>  (1) 
-0.907003

>  <SCORE.INTER>  (1) 
-0.394658

>  <SCORE.INTER.CONST>  (1) 
1

>  <SCORE.INTER.POLAR>  (1) 
0

>  <SCORE.INTER.REPUL>  (1) 
0

>  <SCORE.INTER.ROT>  (1) 
4

>  <SCORE.INTER.VDW>  (1) 
-9.79466

>  <SCORE.INTER.norm>  (1) 
-0.0263105

>  <SCORE.INTRA>  (1) 
-0.512345

>  <SCORE.INTRA.DIHEDRAL>  (1) 
0.0193863

>  <SCORE.INTRA.DIHEDRAL.0>  (1) 
3.08943

>  <SCORE.INTRA.POLAR>  (1) 
0

>  <SCORE.INTRA.POLAR.0>  (1) 
0

>  <SCORE.INTRA.REPUL>  (1) 
0

>  <SCORE.INTRA.REPUL.0>  (1) 
0

>  <SCORE.INTRA.VDW>  (1) 
-0.522039

>  <SCORE.INTRA.VDW.0>  (1) 
-1.44834

>  <SCORE.INTRA.norm>  (1) 
-0.0341564

>  <SCORE.RESTR>  (1) 
0

>  <SCORE.RESTR.CAVITY>  (1) 
0

>  <SCORE.RESTR.norm>  (1) 
0

>  <SCORE.SYSTEM>  (1) 
0

>  <SCORE.SYSTEM.CONST>  (1) 
0

>  <SCORE.SYSTEM.DIHEDRAL>  (1) 
0

>  <SCORE.SYSTEM.norm>  (1) 
0

>  <SCORE.heavy>  (1) 
15

>  <SCORE.norm>  (1) 
-0.0604669

>  <TETHERED ATOMS>  (1) 
6,9,4,5,10

>  <skeledock_score>  (1) 
21

$$$$
