F488
     RDKit          3D

 38 39  0  0  0  0  0  0  0  0999 V2000
  -25.8099   15.4580   29.6915 C   0  0  0  0  0  0  0  0  0  0  0  0
  -24.5131   15.1601   29.0646 N   0  0  0  0  0  0  0  0  0  0  0  0
  -23.7223   14.2796   29.9431 C   0  0  0  0  0  0  0  0  0  0  0  0
  -22.4195   13.8846   29.2505 C   0  0  0  0  0  0  0  0  0  0  0  0
  -21.7080   15.0788   28.7806 N   0  0  0  0  0  0  0  0  0  0  0  0
  -22.4714   16.1171   28.0774 C   0  0  0  0  0  0  0  0  0  0  0  0
  -23.7769   16.4132   28.8161 C   0  0  0  0  0  0  0  0  0  0  0  0
  -20.2734   15.0790   28.6679 C   0  0  0  0  0  0  0  0  0  0  0  0
  -19.6403   16.1630   28.7843 O   0  0  0  0  0  0  0  0  0  0  0  0
  -19.5004   13.8198   28.3866 C   0  0  0  0  0  0  0  0  0  0  0  0
  -18.3871   14.1011   27.5388 O   0  0  0  0  0  0  0  0  0  0  0  0
  -18.1357   13.4878   26.3007 C   0  0  0  0  0  0  0  0  0  0  0  0
  -17.6485   14.2807   25.2551 C   0  0  0  0  0  0  0  0  0  0  0  0
  -17.3868   13.7218   24.0008 C   0  0  0  0  0  0  0  0  0  0  0  0
  -17.5946   12.3525   23.7798 C   0  0  0  0  0  0  0  0  0  0  0  0
  -17.3532   11.7601   22.4231 C   0  0  0  0  0  0  0  0  0  0  0  0
  -18.0932   11.5557   24.8206 C   0  0  0  0  0  0  0  0  0  0  0  0
  -18.3538   12.1147   26.0752 C   0  0  0  0  0  0  0  0  0  0  0  0
  -26.3807   14.5185   29.8542 H   0  0  0  0  0  0  0  0  0  0  0  0
  -25.6786   15.9764   30.6678 H   0  0  0  0  0  0  0  0  0  0  0  0
  -26.4206   16.0995   29.0202 H   0  0  0  0  0  0  0  0  0  0  0  0
  -23.4915   14.7831   30.9103 H   0  0  0  0  0  0  0  0  0  0  0  0
  -24.2915   13.3495   30.1645 H   0  0  0  0  0  0  0  0  0  0  0  0
  -22.6500   13.2295   28.3824 H   0  0  0  0  0  0  0  0  0  0  0  0
  -21.7926   13.3162   29.9720 H   0  0  0  0  0  0  0  0  0  0  0  0
  -22.7006   15.7658   27.0480 H   0  0  0  0  0  0  0  0  0  0  0  0
  -21.8855   17.0586   27.9999 H   0  0  0  0  0  0  0  0  0  0  0  0
  -23.5508   16.9397   29.7721 H   0  0  0  0  0  0  0  0  0  0  0  0
  -24.3860   17.0947   28.1816 H   0  0  0  0  0  0  0  0  0  0  0  0
  -20.1265   13.0276   27.9273 H   0  0  0  0  0  0  0  0  0  0  0  0
  -19.1186   13.4250   29.3509 H   0  0  0  0  0  0  0  0  0  0  0  0
  -17.4795   15.3382   25.4139 H   0  0  0  0  0  0  0  0  0  0  0  0
  -17.0223   14.3569   23.2028 H   0  0  0  0  0  0  0  0  0  0  0  0
  -16.5368   12.3011   21.8988 H   0  0  0  0  0  0  0  0  0  0  0  0
  -17.0576   10.6927   22.5087 H   0  0  0  0  0  0  0  0  0  0  0  0
  -18.2815   11.8315   21.8189 H   0  0  0  0  0  0  0  0  0  0  0  0
  -18.2782   10.5003   24.6621 H   0  0  0  0  0  0  0  0  0  0  0  0
  -18.7223   11.4698   26.8592 H   0  0  0  0  0  0  0  0  0  0  0  0
  1  2  1  0
  2  3  1  0
  3  4  1  0
  4  5  1  0
  5  6  1  0
  6  7  1  0
  5  8  1  0
  8  9  2  0
  8 10  1  0
 10 11  1  0
 11 12  1  0
 12 13  2  0
 13 14  1  0
 14 15  2  0
 15 16  1  0
 15 17  1  0
 17 18  2  0
  7  2  1  0
 12 18  1  0
  1 19  1  0
  1 20  1  0
  1 21  1  0
  3 22  1  0
  3 23  1  0
  4 24  1  0
  4 25  1  0
  6 26  1  0
  6 27  1  0
  7 28  1  0
  7 29  1  0
 10 30  1  0
 10 31  1  0
 13 32  1  0
 14 33  1  0
 16 34  1  0
 16 35  1  0
 16 36  1  0
 17 37  1  0
 18 38  1  0
M  END
>  <CHROM.1>  (1) 
143.56512034,-123.45287664,140.30956584,2.82012643,0.26274936,0.53987646

>  <Name>  (1) 
F488

>  <RI>  (1) 
2.06036e+07

>  <Rbt.Current_Directory>  (1) 
/data/out

>  <Rbt.Executable>  (1) 
rbdock ($Id: //depot/dev/client3/rdock/2013.1/src/exe/rbdock.cxx#4 $)

>  <Rbt.Library>  (1) 
libRbt.so (2013.1, Build901 2013/11/27)

>  <Rbt.Parameter_File>  (1) 
/python_libraries/phenodiscovery/docking/templates/RDOCK_TETHER.conf

>  <Rbt.Receptor>  (1) 
/data/out/rdock-opt/grid/rdock-grid.prm

>  <SCORE>  (1) 
0.280416

>  <SCORE.INTER>  (1) 
-5.00694

>  <SCORE.INTER.CONST>  (1) 
1

>  <SCORE.INTER.POLAR>  (1) 
0

>  <SCORE.INTER.REPUL>  (1) 
0

>  <SCORE.INTER.ROT>  (1) 
3

>  <SCORE.INTER.VDW>  (1) 
-13.4069

>  <SCORE.INTER.norm>  (1) 
-0.278164

>  <SCORE.INTRA>  (1) 
5.09216

>  <SCORE.INTRA.DIHEDRAL>  (1) 
8.8102

>  <SCORE.INTRA.DIHEDRAL.0>  (1) 
1.68176

>  <SCORE.INTRA.POLAR>  (1) 
0

>  <SCORE.INTRA.POLAR.0>  (1) 
0

>  <SCORE.INTRA.REPUL>  (1) 
0

>  <SCORE.INTRA.REPUL.0>  (1) 
0

>  <SCORE.INTRA.VDW>  (1) 
0.687053

>  <SCORE.INTRA.VDW.0>  (1) 
-1.15026

>  <SCORE.INTRA.norm>  (1) 
0.282898

>  <SCORE.RESTR>  (1) 
0.195204

>  <SCORE.RESTR.CAVITY>  (1) 
0.195204

>  <SCORE.RESTR.norm>  (1) 
0.0108447

>  <SCORE.SYSTEM>  (1) 
0

>  <SCORE.SYSTEM.CONST>  (1) 
0

>  <SCORE.SYSTEM.DIHEDRAL>  (1) 
0

>  <SCORE.SYSTEM.norm>  (1) 
0

>  <SCORE.heavy>  (1) 
18

>  <SCORE.norm>  (1) 
0.0155787

>  <TETHERED ATOMS>  (1) 
2,3,4,5,8,10,11,12

>  <skeledock_score>  (1) 
31

$$$$
