F584
     RDKit          3D

 27 28  0  0  0  0  0  0  0  0999 V2000
  -21.5727   16.1675   31.1188 C   0  0  0  0  0  0  0  0  0  0  0  0
  -21.3182   15.6272   29.8261 O   0  0  0  0  0  0  0  0  0  0  0  0
  -20.2786   14.7309   29.5214 C   0  0  0  0  0  0  0  0  0  0  0  0
  -19.3723   14.3029   30.5095 C   0  0  0  0  0  0  0  0  0  0  0  0
  -18.3567   13.4040   30.1948 C   0  0  0  0  0  0  0  0  0  0  0  0
  -18.2197   12.9302   28.8931 C   0  0  0  0  0  0  0  0  0  0  0  0
  -19.0907   13.3558   27.8795 C   0  0  0  0  0  0  0  0  0  0  0  0
  -18.8934   12.8436   26.5500 N   0  0  0  0  0  0  0  0  0  0  0  0
  -18.7718   13.6981   25.4056 C   0  0  0  0  0  0  0  0  0  0  0  0
  -17.7198   13.6459   24.7138 O   0  0  0  0  0  0  0  0  0  0  0  0
  -19.9126   14.5447   24.9242 C   0  0  0  0  0  0  0  0  0  0  0  0
  -20.4872   15.4482   26.0136 C   0  0  0  0  0  0  0  0  0  0  0  0
  -21.1480   14.6434   27.1374 C   0  0  0  0  0  0  0  0  0  0  0  0
  -20.1438   14.2486   28.1956 C   0  0  0  0  0  0  0  0  0  0  0  0
  -20.6961   16.7533   31.4674 H   0  0  0  0  0  0  0  0  0  0  0  0
  -21.7984   15.3507   31.8366 H   0  0  0  0  0  0  0  0  0  0  0  0
  -22.4509   16.8427   31.0626 H   0  0  0  0  0  0  0  0  0  0  0  0
  -19.4487   14.6533   31.5294 H   0  0  0  0  0  0  0  0  0  0  0  0
  -17.6695   13.0748   30.9637 H   0  0  0  0  0  0  0  0  0  0  0  0
  -17.4183   12.2378   28.6670 H   0  0  0  0  0  0  0  0  0  0  0  0
  -18.4059   11.9217   26.4727 H   0  0  0  0  0  0  0  0  0  0  0  0
  -19.5634   15.1891   24.0876 H   0  0  0  0  0  0  0  0  0  0  0  0
  -20.7077   13.8828   24.5184 H   0  0  0  0  0  0  0  0  0  0  0  0
  -19.6983   16.1225   26.4155 H   0  0  0  0  0  0  0  0  0  0  0  0
  -21.2602   16.0942   25.5424 H   0  0  0  0  0  0  0  0  0  0  0  0
  -21.9642   15.2625   27.5644 H   0  0  0  0  0  0  0  0  0  0  0  0
  -21.6413   13.7305   26.7376 H   0  0  0  0  0  0  0  0  0  0  0  0
  1  2  1  0
  2  3  1  0
  3  4  2  0
  4  5  1  0
  5  6  2  0
  6  7  1  0
  7  8  1  0
  8  9  1  0
  9 10  2  0
  9 11  1  0
 11 12  1  0
 12 13  1  0
 13 14  1  0
  3 14  1  0
 14  7  2  0
  1 15  1  0
  1 16  1  0
  1 17  1  0
  4 18  1  0
  5 19  1  0
  6 20  1  0
  8 21  1  0
 11 22  1  0
 11 23  1  0
 12 24  1  0
 12 25  1  0
 13 26  1  0
 13 27  1  0
M  END
>  <CHROM.1>  (1) 
-0.84930282,-1.75301727,0.61705941,-1.57109921

>  <Name>  (1) 
F584

>  <RI>  (1) 
2.88806e+07

>  <Rbt.Current_Directory>  (1) 
/data/out

>  <Rbt.Executable>  (1) 
rbdock ($Id: //depot/dev/client3/rdock/2013.1/src/exe/rbdock.cxx#4 $)

>  <Rbt.Library>  (1) 
libRbt.so (2013.1, Build901 2013/11/27)

>  <Rbt.Parameter_File>  (1) 
/python_libraries/phenodiscovery/docking/templates/RDOCK_TETHER.conf

>  <Rbt.Receptor>  (1) 
/data/out/rdock-opt/grid/rdock-grid.prm

>  <SCORE>  (1) 
-3.91608

>  <SCORE.INTER>  (1) 
-3.90619

>  <SCORE.INTER.CONST>  (1) 
1

>  <SCORE.INTER.POLAR>  (1) 
0

>  <SCORE.INTER.REPUL>  (1) 
0

>  <SCORE.INTER.ROT>  (1) 
1

>  <SCORE.INTER.VDW>  (1) 
-10.3062

>  <SCORE.INTER.norm>  (1) 
-0.279014

>  <SCORE.INTRA>  (1) 
-0.00989097

>  <SCORE.INTRA.DIHEDRAL>  (1) 
0.00120495

>  <SCORE.INTRA.DIHEDRAL.0>  (1) 
1.86348e-05

>  <SCORE.INTRA.POLAR>  (1) 
0

>  <SCORE.INTRA.POLAR.0>  (1) 
0

>  <SCORE.INTRA.REPUL>  (1) 
0

>  <SCORE.INTRA.REPUL.0>  (1) 
0

>  <SCORE.INTRA.VDW>  (1) 
-0.0104934

>  <SCORE.INTRA.VDW.0>  (1) 
0.177704

>  <SCORE.INTRA.norm>  (1) 
-0.000706498

>  <SCORE.RESTR>  (1) 
0

>  <SCORE.RESTR.CAVITY>  (1) 
0

>  <SCORE.RESTR.norm>  (1) 
0

>  <SCORE.SYSTEM>  (1) 
0

>  <SCORE.SYSTEM.CONST>  (1) 
0

>  <SCORE.SYSTEM.DIHEDRAL>  (1) 
0

>  <SCORE.SYSTEM.norm>  (1) 
0

>  <SCORE.heavy>  (1) 
14

>  <SCORE.norm>  (1) 
-0.27972

>  <TETHERED ATOMS>  (1) 
4,3,14,13,2,12,9,11

>  <skeledock_score>  (1) 
22

$$$$
