F369
     RDKit          3D

 32 33  0  0  0  0  0  0  0  0999 V2000
  -22.9698   16.8313   28.8280 C   0  0  0  0  0  0  0  0  0  0  0  0
  -21.8690   15.7756   28.7983 C   0  0  0  0  0  0  0  0  0  0  0  0
  -21.3269   15.6369   27.4501 N   0  0  0  0  0  0  0  0  0  0  0  0
  -20.1936   14.9893   27.1182 C   0  0  0  0  0  0  0  0  0  0  0  0
  -20.0614   15.0646   25.7488 C   0  0  0  0  0  0  0  0  0  0  0  0
  -19.0933   14.4057   24.9219 N   0  0  0  0  0  0  0  0  0  0  0  0
  -18.0504   13.5643   25.4340 C   0  0  0  0  0  0  0  0  0  0  0  0
  -17.6450   13.7062   26.6198 O   0  0  0  0  0  0  0  0  0  0  0  0
  -17.3917   12.5527   24.5312 C   0  0  0  0  0  0  0  0  0  0  0  0
  -16.5182   13.1914   23.4589 C   0  0  0  0  0  0  0  0  0  0  0  0
  -16.4645   12.1720   22.3280 C   0  0  0  0  0  0  0  0  0  0  0  0
  -17.6755   11.2539   22.5025 C   0  0  0  0  0  0  0  0  0  0  0  0
  -18.4023   11.7121   23.7626 C   0  0  0  0  0  0  0  0  0  0  0  0
  -21.1600   15.7701   25.3018 C   0  0  0  0  0  0  0  0  0  0  0  0
  -21.9159   16.1157   26.3632 N   0  0  0  0  0  0  0  0  0  0  0  0
  -22.5738   17.8047   28.4683 H   0  0  0  0  0  0  0  0  0  0  0  0
  -23.8205   16.5217   28.1849 H   0  0  0  0  0  0  0  0  0  0  0  0
  -23.3382   16.9561   29.8680 H   0  0  0  0  0  0  0  0  0  0  0  0
  -21.0604   16.0794   29.4984 H   0  0  0  0  0  0  0  0  0  0  0  0
  -22.2742   14.7986   29.1393 H   0  0  0  0  0  0  0  0  0  0  0  0
  -19.5524   14.4675   27.8162 H   0  0  0  0  0  0  0  0  0  0  0  0
  -19.1714   14.5283   23.8872 H   0  0  0  0  0  0  0  0  0  0  0  0
  -16.7528   11.8706   25.1373 H   0  0  0  0  0  0  0  0  0  0  0  0
  -15.5019   13.4171   23.8493 H   0  0  0  0  0  0  0  0  0  0  0  0
  -16.9771   14.1305   23.0765 H   0  0  0  0  0  0  0  0  0  0  0  0
  -15.5272   11.5776   22.4021 H   0  0  0  0  0  0  0  0  0  0  0  0
  -16.4884   12.6803   21.3393 H   0  0  0  0  0  0  0  0  0  0  0  0
  -18.3491   11.3152   21.6199 H   0  0  0  0  0  0  0  0  0  0  0  0
  -17.3380   10.2007   22.6214 H   0  0  0  0  0  0  0  0  0  0  0  0
  -18.7469   10.8459   24.3686 H   0  0  0  0  0  0  0  0  0  0  0  0
  -19.2851   12.3242   23.4704 H   0  0  0  0  0  0  0  0  0  0  0  0
  -21.4072   15.9970   24.2734 H   0  0  0  0  0  0  0  0  0  0  0  0
  1  2  1  0
  2  3  1  0
  3  4  1  0
  4  5  2  0
  5  6  1  0
  6  7  1  0
  7  8  2  0
  7  9  1  0
  9 10  1  0
 10 11  1  0
 11 12  1  0
 12 13  1  0
  5 14  1  0
 14 15  2  0
 15  3  1  0
 13  9  1  0
  1 16  1  0
  1 17  1  0
  1 18  1  0
  2 19  1  0
  2 20  1  0
  4 21  1  0
  6 22  1  0
  9 23  1  0
 10 24  1  0
 10 25  1  0
 11 26  1  0
 11 27  1  0
 12 28  1  0
 12 29  1  0
 13 30  1  0
 13 31  1  0
 14 32  1  0
M  END
>  <CHROM.1>  (1) 
166.83345709,-1.97980356,69.86999344,-2.57066947,0.55948266,-1.60835371

>  <Name>  (1) 
F369

>  <RI>  (1) 
2.38765e+07

>  <Rbt.Current_Directory>  (1) 
/data/out

>  <Rbt.Executable>  (1) 
rbdock ($Id: //depot/dev/client3/rdock/2013.1/src/exe/rbdock.cxx#4 $)

>  <Rbt.Library>  (1) 
libRbt.so (2013.1, Build901 2013/11/27)

>  <Rbt.Parameter_File>  (1) 
/python_libraries/phenodiscovery/docking/templates/RDOCK_TETHER.conf

>  <Rbt.Receptor>  (1) 
/data/out/rdock-opt/grid/rdock-grid.prm

>  <SCORE>  (1) 
-2.561

>  <SCORE.INTER>  (1) 
-0.392818

>  <SCORE.INTER.CONST>  (1) 
1

>  <SCORE.INTER.POLAR>  (1) 
0

>  <SCORE.INTER.REPUL>  (1) 
0

>  <SCORE.INTER.ROT>  (1) 
3

>  <SCORE.INTER.VDW>  (1) 
-8.79282

>  <SCORE.INTER.norm>  (1) 
-0.0261879

>  <SCORE.INTRA>  (1) 
-2.16818

>  <SCORE.INTRA.DIHEDRAL>  (1) 
-5.79814

>  <SCORE.INTRA.DIHEDRAL.0>  (1) 
9.54125

>  <SCORE.INTRA.POLAR>  (1) 
0

>  <SCORE.INTRA.POLAR.0>  (1) 
0

>  <SCORE.INTRA.REPUL>  (1) 
0

>  <SCORE.INTRA.REPUL.0>  (1) 
0

>  <SCORE.INTRA.VDW>  (1) 
0.73089

>  <SCORE.INTRA.VDW.0>  (1) 
-1.80081

>  <SCORE.INTRA.norm>  (1) 
-0.144545

>  <SCORE.RESTR>  (1) 
0

>  <SCORE.RESTR.CAVITY>  (1) 
0

>  <SCORE.RESTR.norm>  (1) 
0

>  <SCORE.SYSTEM>  (1) 
0

>  <SCORE.SYSTEM.CONST>  (1) 
0

>  <SCORE.SYSTEM.DIHEDRAL>  (1) 
0

>  <SCORE.SYSTEM.norm>  (1) 
0

>  <SCORE.heavy>  (1) 
15

>  <SCORE.norm>  (1) 
-0.170733

>  <TETHERED ATOMS>  (1) 
4,5,6,7,8,9,1,2,3

>  <skeledock_score>  (1) 
40

$$$$
