F393
     RDKit          3D

 24 24  0  0  0  0  0  0  0  0999 V2000
  -19.2589   11.0840   24.7895 C   0  0  0  0  0  0  0  0  0  0  0  0
  -18.2767   12.2501   24.8137 C   0  0  0  0  0  0  0  0  0  0  0  0
  -18.7571   13.2993   25.6503 O   0  0  0  0  0  0  0  0  0  0  0  0
  -18.8630   13.1937   27.0424 C   0  0  0  0  0  0  0  0  0  0  0  0
  -18.4791   12.1456   27.6310 O   0  0  0  0  0  0  0  0  0  0  0  0
  -19.3805   14.2981   27.8038 N   0  0  0  0  0  0  0  0  0  0  0  0
  -19.1628   14.3637   29.2537 C   0  0  0  0  0  0  0  0  0  0  0  0
  -19.1791   15.8206   29.7212 C   0  0  0  0  0  0  0  0  0  0  0  0
  -20.3461   16.4746   29.2653 O   0  0  0  0  0  0  0  0  0  0  0  0
  -20.3208   16.5649   27.8536 C   0  0  0  0  0  0  0  0  0  0  0  0
  -20.3951   15.1754   27.2137 C   0  0  0  0  0  0  0  0  0  0  0  0
  -19.3490   10.6288   25.7975 H   0  0  0  0  0  0  0  0  0  0  0  0
  -18.8995   10.3086   24.0807 H   0  0  0  0  0  0  0  0  0  0  0  0
  -20.2583   11.4379   24.4590 H   0  0  0  0  0  0  0  0  0  0  0  0
  -18.1705   12.6440   23.7811 H   0  0  0  0  0  0  0  0  0  0  0  0
  -17.2760   11.9085   25.1570 H   0  0  0  0  0  0  0  0  0  0  0  0
  -19.9672   13.7966   29.7703 H   0  0  0  0  0  0  0  0  0  0  0  0
  -18.1812   13.9152   29.5217 H   0  0  0  0  0  0  0  0  0  0  0  0
  -19.1741   15.8388   30.8314 H   0  0  0  0  0  0  0  0  0  0  0  0
  -18.2595   16.3504   29.3817 H   0  0  0  0  0  0  0  0  0  0  0  0
  -19.4136   17.1074   27.5011 H   0  0  0  0  0  0  0  0  0  0  0  0
  -21.2003   17.1564   27.5221 H   0  0  0  0  0  0  0  0  0  0  0  0
  -21.4015   14.7380   27.3904 H   0  0  0  0  0  0  0  0  0  0  0  0
  -20.2428   15.2803   26.1180 H   0  0  0  0  0  0  0  0  0  0  0  0
  1  2  1  0
  2  3  1  0
  3  4  1  0
  4  5  2  0
  4  6  1  0
  6  7  1  0
  7  8  1  0
  8  9  1  0
  9 10  1  0
 10 11  1  0
 11  6  1  0
  1 12  1  0
  1 13  1  0
  1 14  1  0
  2 15  1  0
  2 16  1  0
  7 17  1  0
  7 18  1  0
  8 19  1  0
  8 20  1  0
 10 21  1  0
 10 22  1  0
 11 23  1  0
 11 24  1  0
M  END
>  <CHROM.1>  (1) 
68.35099955,2.58889864,-0.87740651,-1.08039517,1.34512189

>  <Name>  (1) 
F393

>  <RI>  (1) 
1.89231e+07

>  <Rbt.Current_Directory>  (1) 
/data/out

>  <Rbt.Executable>  (1) 
rbdock ($Id: //depot/dev/client3/rdock/2013.1/src/exe/rbdock.cxx#4 $)

>  <Rbt.Library>  (1) 
libRbt.so (2013.1, Build901 2013/11/27)

>  <Rbt.Parameter_File>  (1) 
/python_libraries/phenodiscovery/docking/templates/RDOCK_TETHER.conf

>  <Rbt.Receptor>  (1) 
/data/out/rdock-opt/grid/rdock-grid.prm

>  <SCORE>  (1) 
-0.254233

>  <SCORE.INTER>  (1) 
-0.037468

>  <SCORE.INTER.CONST>  (1) 
1

>  <SCORE.INTER.POLAR>  (1) 
0

>  <SCORE.INTER.REPUL>  (1) 
0

>  <SCORE.INTER.ROT>  (1) 
2

>  <SCORE.INTER.VDW>  (1) 
-7.43747

>  <SCORE.INTER.norm>  (1) 
-0.00340618

>  <SCORE.INTRA>  (1) 
-0.216765

>  <SCORE.INTRA.DIHEDRAL>  (1) 
-0.63165

>  <SCORE.INTRA.DIHEDRAL.0>  (1) 
0.913309

>  <SCORE.INTRA.POLAR>  (1) 
0

>  <SCORE.INTRA.POLAR.0>  (1) 
0

>  <SCORE.INTRA.REPUL>  (1) 
0

>  <SCORE.INTRA.REPUL.0>  (1) 
0

>  <SCORE.INTRA.VDW>  (1) 
0.09906

>  <SCORE.INTRA.VDW.0>  (1) 
-0.619653

>  <SCORE.INTRA.norm>  (1) 
-0.0197059

>  <SCORE.RESTR>  (1) 
0

>  <SCORE.RESTR.CAVITY>  (1) 
0

>  <SCORE.RESTR.norm>  (1) 
0

>  <SCORE.SYSTEM>  (1) 
0

>  <SCORE.SYSTEM.CONST>  (1) 
0

>  <SCORE.SYSTEM.DIHEDRAL>  (1) 
0

>  <SCORE.SYSTEM.norm>  (1) 
0

>  <SCORE.heavy>  (1) 
11

>  <SCORE.norm>  (1) 
-0.0231121

>  <TETHERED ATOMS>  (1) 
4,6,11,10,5,2,3,9,7,8

>  <skeledock_score>  (1) 
42

$$$$
