F501
     RDKit          3D

 24 25  0  0  0  0  0  0  0  0999 V2000
  -23.0238   17.3082   30.8795 C   0  0  0  0  0  0  0  0  0  0  0  0
  -21.6229   16.9771   31.1104 N   0  0  0  0  0  0  0  0  0  0  0  0
  -20.8564   17.5796   32.0098 N   0  0  0  0  0  0  0  0  0  0  0  0
  -19.6220   17.0878   31.9800 N   0  0  0  0  0  0  0  0  0  0  0  0
  -19.6152   16.1452   31.0177 C   0  0  0  0  0  0  0  0  0  0  0  0
  -18.4606   15.2921   30.6037 C   0  0  0  0  0  0  0  0  0  0  0  0
  -18.7248   14.6961   29.2062 C   0  0  0  0  0  0  0  0  0  0  0  0
  -20.1515   14.0873   29.1009 C   0  0  0  0  0  0  0  0  0  0  0  0
  -21.2527   15.1513   29.3500 C   0  0  0  0  0  0  0  0  0  0  0  0
  -20.8702   16.0561   30.4843 C   0  0  0  0  0  0  0  0  0  0  0  0
  -20.3890   13.4070   27.7766 C   0  0  0  0  0  0  0  0  0  0  0  0
  -21.4210   13.6512   27.0936 O   0  0  0  0  0  0  0  0  0  0  0  0
  -19.4523   12.4936   27.3022 O   0  0  0  0  0  0  0  0  0  0  0  0
  -23.6046   17.1305   31.8085 H   0  0  0  0  0  0  0  0  0  0  0  0
  -23.4519   16.6884   30.0646 H   0  0  0  0  0  0  0  0  0  0  0  0
  -23.1095   18.3777   30.5954 H   0  0  0  0  0  0  0  0  0  0  0  0
  -17.5310   15.8998   30.5835 H   0  0  0  0  0  0  0  0  0  0  0  0
  -18.3365   14.4723   31.3431 H   0  0  0  0  0  0  0  0  0  0  0  0
  -18.6040   15.4954   28.4414 H   0  0  0  0  0  0  0  0  0  0  0  0
  -17.9631   13.9109   29.0070 H   0  0  0  0  0  0  0  0  0  0  0  0
  -20.2386   13.3067   29.8897 H   0  0  0  0  0  0  0  0  0  0  0  0
  -22.2062   14.6365   29.5960 H   0  0  0  0  0  0  0  0  0  0  0  0
  -21.4061   15.7746   28.4423 H   0  0  0  0  0  0  0  0  0  0  0  0
  -19.5906   12.0188   26.4181 H   0  0  0  0  0  0  0  0  0  0  0  0
  1  2  1  0
  2  3  1  0
  3  4  2  0
  4  5  1  0
  5  6  1  0
  6  7  1  0
  7  8  1  0
  8  9  1  0
  9 10  1  0
  8 11  1  0
 11 12  2  0
 11 13  1  0
 10  2  1  0
  5 10  2  0
  1 14  1  0
  1 15  1  0
  1 16  1  0
  6 17  1  0
  6 18  1  0
  7 19  1  0
  7 20  1  0
  8 21  1  0
  9 22  1  0
  9 23  1  0
 13 24  1  0
M  END
>  <CHROM.1>  (1) 
-130.56877878,179.64236922,0.36559517,-0.17779286,0.81213039

>  <Name>  (1) 
F501

>  <RI>  (1) 
1.97014e+07

>  <Rbt.Current_Directory>  (1) 
/data/out

>  <Rbt.Executable>  (1) 
rbdock ($Id: //depot/dev/client3/rdock/2013.1/src/exe/rbdock.cxx#4 $)

>  <Rbt.Library>  (1) 
libRbt.so (2013.1, Build901 2013/11/27)

>  <Rbt.Parameter_File>  (1) 
/python_libraries/phenodiscovery/docking/templates/RDOCK_TETHER.conf

>  <Rbt.Receptor>  (1) 
/data/out/rdock-opt/grid/rdock-grid.prm

>  <SCORE>  (1) 
1.13097

>  <SCORE.INTER>  (1) 
0.653573

>  <SCORE.INTER.CONST>  (1) 
1

>  <SCORE.INTER.POLAR>  (1) 
0

>  <SCORE.INTER.REPUL>  (1) 
0

>  <SCORE.INTER.ROT>  (1) 
1

>  <SCORE.INTER.VDW>  (1) 
-5.74643

>  <SCORE.INTER.norm>  (1) 
0.0502749

>  <SCORE.INTRA>  (1) 
0.477393

>  <SCORE.INTRA.DIHEDRAL>  (1) 
0.0855109

>  <SCORE.INTRA.DIHEDRAL.0>  (1) 
0.619148

>  <SCORE.INTRA.POLAR>  (1) 
0

>  <SCORE.INTRA.POLAR.0>  (1) 
0

>  <SCORE.INTRA.REPUL>  (1) 
0

>  <SCORE.INTRA.REPUL.0>  (1) 
0

>  <SCORE.INTRA.VDW>  (1) 
0.434637

>  <SCORE.INTRA.VDW.0>  (1) 
-0.690497

>  <SCORE.INTRA.norm>  (1) 
0.0367225

>  <SCORE.RESTR>  (1) 
0

>  <SCORE.RESTR.CAVITY>  (1) 
0

>  <SCORE.RESTR.norm>  (1) 
0

>  <SCORE.SYSTEM>  (1) 
0

>  <SCORE.SYSTEM.CONST>  (1) 
0

>  <SCORE.SYSTEM.DIHEDRAL>  (1) 
0

>  <SCORE.SYSTEM.norm>  (1) 
0

>  <SCORE.heavy>  (1) 
13

>  <SCORE.norm>  (1) 
0.0869974

>  <TETHERED ATOMS>  (1) 
5,6,7,8,9,10

>  <skeledock_score>  (1) 
32

$$$$
