F666
     RDKit          3D

 35 37  0  0  0  0  0  0  0  0999 V2000
  -18.8430   13.7308   26.5516 F   0  0  0  0  0  0  0  0  0  0  0  0
  -19.9718   14.0897   27.2113 C   0  0  0  0  0  0  0  0  0  0  0  0
  -20.9579   13.1386   27.4733 C   0  0  0  0  0  0  0  0  0  0  0  0
  -22.1195   13.5062   28.1507 C   0  0  0  0  0  0  0  0  0  0  0  0
  -22.3092   14.8345   28.5748 C   0  0  0  0  0  0  0  0  0  0  0  0
  -21.3095   15.7870   28.3066 C   0  0  0  0  0  0  0  0  0  0  0  0
  -20.1453   15.4128   27.6288 C   0  0  0  0  0  0  0  0  0  0  0  0
  -23.5253   15.2159   29.2478 N   0  0  0  0  0  0  0  0  0  0  0  0
  -24.1112   14.3027   30.2409 C   0  0  0  0  0  0  0  0  0  0  0  0
  -25.0301   15.0557   31.2032 C   0  0  0  0  0  0  0  0  0  0  0  0
  -26.0067   15.8438   30.4381 N   0  0  0  0  0  0  0  0  0  0  0  0
  -25.5410   16.6561   29.3019 C   0  0  0  0  0  0  0  0  0  0  0  0
  -24.0169   16.5982   29.1378 C   0  0  0  0  0  0  0  0  0  0  0  0
  -27.4195   15.7557   30.7313 C   0  0  0  0  0  0  0  0  0  0  0  0
  -27.8396   14.9281   31.5857 O   0  0  0  0  0  0  0  0  0  0  0  0
  -28.4209   16.6037   29.9933 C   0  0  0  0  0  0  0  0  0  0  0  0
  -28.8128   16.1035   28.6086 C   0  0  0  0  0  0  0  0  0  0  0  0
  -29.7692   15.9329   29.7744 C   0  0  0  0  0  0  0  0  0  0  0  0
  -20.8242   12.1153   27.1464 H   0  0  0  0  0  0  0  0  0  0  0  0
  -22.8794   12.7556   28.3238 H   0  0  0  0  0  0  0  0  0  0  0  0
  -21.4278   16.8140   28.6265 H   0  0  0  0  0  0  0  0  0  0  0  0
  -19.3785   16.1494   27.4265 H   0  0  0  0  0  0  0  0  0  0  0  0
  -23.3040   13.8166   30.8319 H   0  0  0  0  0  0  0  0  0  0  0  0
  -24.6929   13.5137   29.7174 H   0  0  0  0  0  0  0  0  0  0  0  0
  -24.4222   15.7418   31.8321 H   0  0  0  0  0  0  0  0  0  0  0  0
  -25.5202   14.3255   31.8812 H   0  0  0  0  0  0  0  0  0  0  0  0
  -26.0146   16.2802   28.3690 H   0  0  0  0  0  0  0  0  0  0  0  0
  -25.8386   17.7159   29.4479 H   0  0  0  0  0  0  0  0  0  0  0  0
  -23.7535   17.0253   28.1451 H   0  0  0  0  0  0  0  0  0  0  0  0
  -23.5376   17.2206   29.9246 H   0  0  0  0  0  0  0  0  0  0  0  0
  -28.4446   17.7041   30.1413 H   0  0  0  0  0  0  0  0  0  0  0  0
  -28.3535   15.1494   28.2716 H   0  0  0  0  0  0  0  0  0  0  0  0
  -29.1151   16.9007   27.8971 H   0  0  0  0  0  0  0  0  0  0  0  0
  -29.8571   14.8850   30.1353 H   0  0  0  0  0  0  0  0  0  0  0  0
  -30.6318   16.6319   29.7578 H   0  0  0  0  0  0  0  0  0  0  0  0
  1  2  1  0
  2  3  2  0
  3  4  1  0
  4  5  2  0
  5  6  1  0
  6  7  2  0
  5  8  1  0
  8  9  1  0
  9 10  1  0
 10 11  1  0
 11 12  1  0
 12 13  1  0
 11 14  1  0
 14 15  2  0
 14 16  1  0
 16 17  1  0
 17 18  1  0
  2  7  1  0
 13  8  1  0
 18 16  1  0
  3 19  1  0
  4 20  1  0
  6 21  1  0
  7 22  1  0
  9 23  1  0
  9 24  1  0
 10 25  1  0
 10 26  1  0
 12 27  1  0
 12 28  1  0
 13 29  1  0
 13 30  1  0
 16 31  1  0
 17 32  1  0
 17 33  1  0
 18 34  1  0
 18 35  1  0
M  END
>  <CHROM.1>  (1) 
40.38475140,79.87588123,-0.29738938,0.57666864,-0.04382676

>  <Name>  (1) 
F666

>  <RI>  (1) 
3.09214e+07

>  <Rbt.Current_Directory>  (1) 
/data/out

>  <Rbt.Executable>  (1) 
rbdock ($Id: //depot/dev/client3/rdock/2013.1/src/exe/rbdock.cxx#4 $)

>  <Rbt.Library>  (1) 
libRbt.so (2013.1, Build901 2013/11/27)

>  <Rbt.Parameter_File>  (1) 
/python_libraries/phenodiscovery/docking/templates/RDOCK_TETHER.conf

>  <Rbt.Receptor>  (1) 
/data/out/rdock-opt/grid/rdock-grid.prm

>  <SCORE>  (1) 
0.702466

>  <SCORE.INTER>  (1) 
0.397343

>  <SCORE.INTER.CONST>  (1) 
1

>  <SCORE.INTER.POLAR>  (1) 
0

>  <SCORE.INTER.REPUL>  (1) 
0

>  <SCORE.INTER.ROT>  (1) 
2

>  <SCORE.INTER.VDW>  (1) 
-7.00266

>  <SCORE.INTER.norm>  (1) 
0.0220746

>  <SCORE.INTRA>  (1) 
0.305123

>  <SCORE.INTRA.DIHEDRAL>  (1) 
-1.39836

>  <SCORE.INTRA.DIHEDRAL.0>  (1) 
7.33139

>  <SCORE.INTRA.POLAR>  (1) 
0

>  <SCORE.INTRA.POLAR.0>  (1) 
0

>  <SCORE.INTRA.REPUL>  (1) 
0

>  <SCORE.INTRA.REPUL.0>  (1) 
0

>  <SCORE.INTRA.VDW>  (1) 
1.0043

>  <SCORE.INTRA.VDW.0>  (1) 
-1.71807

>  <SCORE.INTRA.norm>  (1) 
0.0169513

>  <SCORE.RESTR>  (1) 
0

>  <SCORE.RESTR.CAVITY>  (1) 
0

>  <SCORE.RESTR.norm>  (1) 
0

>  <SCORE.SYSTEM>  (1) 
0

>  <SCORE.SYSTEM.CONST>  (1) 
0

>  <SCORE.SYSTEM.DIHEDRAL>  (1) 
0

>  <SCORE.SYSTEM.norm>  (1) 
0

>  <SCORE.heavy>  (1) 
18

>  <SCORE.norm>  (1) 
0.0390259

>  <TETHERED ATOMS>  (1) 
5,8,13,10,11,2,3,4,6

>  <skeledock_score>  (1) 
27

$$$$
