F501
     RDKit          3D

 24 25  0  0  0  0  0  0  0  0999 V2000
  -19.0314   12.0202   23.6842 C   0  0  0  0  0  0  0  0  0  0  0  0
  -18.8121   12.1936   25.1138 N   0  0  0  0  0  0  0  0  0  0  0  0
  -18.2820   11.2788   25.9144 N   0  0  0  0  0  0  0  0  0  0  0  0
  -18.1985   11.7393   27.1587 N   0  0  0  0  0  0  0  0  0  0  0  0
  -18.6879   12.9936   27.1317 C   0  0  0  0  0  0  0  0  0  0  0  0
  -18.8284   13.9311   28.2868 C   0  0  0  0  0  0  0  0  0  0  0  0
  -19.0007   15.3742   27.7702 C   0  0  0  0  0  0  0  0  0  0  0  0
  -20.0547   15.4568   26.6290 C   0  0  0  0  0  0  0  0  0  0  0  0
  -19.6506   14.5899   25.4078 C   0  0  0  0  0  0  0  0  0  0  0  0
  -19.0923   13.2748   25.8579 C   0  0  0  0  0  0  0  0  0  0  0  0
  -20.3086   16.8782   26.1867 C   0  0  0  0  0  0  0  0  0  0  0  0
  -19.5789   17.8227   26.5919 O   0  0  0  0  0  0  0  0  0  0  0  0
  -21.3597   17.1628   25.3192 O   0  0  0  0  0  0  0  0  0  0  0  0
  -20.1134   12.1199   23.4567 H   0  0  0  0  0  0  0  0  0  0  0  0
  -18.6870   11.0145   23.3628 H   0  0  0  0  0  0  0  0  0  0  0  0
  -18.4643   12.7921   23.1225 H   0  0  0  0  0  0  0  0  0  0  0  0
  -17.9287   13.8684   28.9351 H   0  0  0  0  0  0  0  0  0  0  0  0
  -19.7199   13.6374   28.8812 H   0  0  0  0  0  0  0  0  0  0  0  0
  -18.0197   15.7453   27.3981 H   0  0  0  0  0  0  0  0  0  0  0  0
  -19.3129   16.0198   28.6200 H   0  0  0  0  0  0  0  0  0  0  0  0
  -21.0130   15.0624   27.0350 H   0  0  0  0  0  0  0  0  0  0  0  0
  -18.8776   15.1082   24.7996 H   0  0  0  0  0  0  0  0  0  0  0  0
  -20.5424   14.4084   24.7707 H   0  0  0  0  0  0  0  0  0  0  0  0
  -21.9059   16.4229   24.8947 H   0  0  0  0  0  0  0  0  0  0  0  0
  1  2  1  0
  2  3  1  0
  3  4  2  0
  4  5  1  0
  5  6  1  0
  6  7  1  0
  7  8  1  0
  8  9  1  0
  9 10  1  0
  8 11  1  0
 11 12  2  0
 11 13  1  0
 10  2  1  0
  5 10  2  0
  1 14  1  0
  1 15  1  0
  1 16  1  0
  6 17  1  0
  6 18  1  0
  7 19  1  0
  7 20  1  0
  8 21  1  0
  9 22  1  0
  9 23  1  0
 13 24  1  0
M  END
>  <CHROM.1>  (1) 
9.59985706,-6.55087178,0.42164025,1.13175443,-2.28546913

>  <Name>  (1) 
F501

>  <RI>  (1) 
3.55168e+07

>  <Rbt.Current_Directory>  (1) 
/data/out

>  <Rbt.Executable>  (1) 
rbdock ($Id: //depot/dev/client3/rdock/2013.1/src/exe/rbdock.cxx#4 $)

>  <Rbt.Library>  (1) 
libRbt.so (2013.1, Build901 2013/11/27)

>  <Rbt.Parameter_File>  (1) 
/python_libraries/phenodiscovery/docking/templates/RDOCK_TETHER.conf

>  <Rbt.Receptor>  (1) 
/data/out/rdock-opt/grid/rdock-grid.prm

>  <SCORE>  (1) 
-1.5074

>  <SCORE.INTER>  (1) 
-1.63782

>  <SCORE.INTER.CONST>  (1) 
1

>  <SCORE.INTER.POLAR>  (1) 
0

>  <SCORE.INTER.REPUL>  (1) 
0.0253639

>  <SCORE.INTER.ROT>  (1) 
1

>  <SCORE.INTER.VDW>  (1) 
-8.16464

>  <SCORE.INTER.norm>  (1) 
-0.125986

>  <SCORE.INTRA>  (1) 
0.130426

>  <SCORE.INTRA.DIHEDRAL>  (1) 
0.247567

>  <SCORE.INTRA.DIHEDRAL.0>  (1) 
0.729139

>  <SCORE.INTRA.POLAR>  (1) 
0

>  <SCORE.INTRA.POLAR.0>  (1) 
0

>  <SCORE.INTRA.REPUL>  (1) 
0

>  <SCORE.INTRA.REPUL.0>  (1) 
0

>  <SCORE.INTRA.VDW>  (1) 
0.00664281

>  <SCORE.INTRA.VDW.0>  (1) 
-0.833873

>  <SCORE.INTRA.norm>  (1) 
0.0100328

>  <SCORE.RESTR>  (1) 
0

>  <SCORE.RESTR.CAVITY>  (1) 
0

>  <SCORE.RESTR.norm>  (1) 
0

>  <SCORE.SYSTEM>  (1) 
0

>  <SCORE.SYSTEM.CONST>  (1) 
0

>  <SCORE.SYSTEM.DIHEDRAL>  (1) 
0

>  <SCORE.SYSTEM.norm>  (1) 
0

>  <SCORE.heavy>  (1) 
13

>  <SCORE.norm>  (1) 
-0.115954

>  <TETHERED ATOMS>  (1) 
5,6,7,8,4,9,11

>  <skeledock_score>  (1) 
40

$$$$
