F467
     RDKit          3D

 23 23  0  0  0  0  0  0  0  0999 V2000
  -21.5766   16.2906   27.2026 C   0  0  0  0  0  0  0  0  0  0  0  0
  -20.7402   15.0998   27.3989 N   0  0  0  0  0  0  0  0  0  0  0  0
  -20.4062   14.2792   26.2241 C   0  0  0  0  0  0  0  0  0  0  0  0
  -19.1274   14.7735   25.5502 C   0  0  0  0  0  0  0  0  0  0  0  0
  -18.0090   14.3074   26.2488 O   0  0  0  0  0  0  0  0  0  0  0  0
  -20.2315   14.7555   28.7124 C   0  0  0  0  0  0  0  0  0  0  0  0
  -20.6602   15.4354   29.8711 C   0  0  0  0  0  0  0  0  0  0  0  0
  -20.1545   15.0640   31.1183 C   0  0  0  0  0  0  0  0  0  0  0  0
  -19.2272   14.0278   31.2133 C   0  0  0  0  0  0  0  0  0  0  0  0
  -18.8169   13.3737   30.0518 C   0  0  0  0  0  0  0  0  0  0  0  0
  -19.3221   13.7464   28.8455 N   0  0  0  0  0  0  0  0  0  0  0  0
  -21.0417   17.1916   27.5701 H   0  0  0  0  0  0  0  0  0  0  0  0
  -21.8129   16.4467   26.1283 H   0  0  0  0  0  0  0  0  0  0  0  0
  -22.5365   16.1724   27.7474 H   0  0  0  0  0  0  0  0  0  0  0  0
  -21.2406   14.3242   25.4904 H   0  0  0  0  0  0  0  0  0  0  0  0
  -20.2969   13.2082   26.5002 H   0  0  0  0  0  0  0  0  0  0  0  0
  -19.1000   14.3887   24.5066 H   0  0  0  0  0  0  0  0  0  0  0  0
  -19.1211   15.8858   25.5181 H   0  0  0  0  0  0  0  0  0  0  0  0
  -18.2143   14.4322   27.2116 H   0  0  0  0  0  0  0  0  0  0  0  0
  -21.3809   16.2396   29.8255 H   0  0  0  0  0  0  0  0  0  0  0  0
  -20.4820   15.5803   32.0115 H   0  0  0  0  0  0  0  0  0  0  0  0
  -18.8300   13.7346   32.1763 H   0  0  0  0  0  0  0  0  0  0  0  0
  -18.0976   12.5678   30.1080 H   0  0  0  0  0  0  0  0  0  0  0  0
  1  2  1  0
  2  3  1  0
  3  4  1  0
  4  5  1  0
  2  6  1  0
  6  7  2  0
  7  8  1  0
  8  9  2  0
  9 10  1  0
 10 11  2  0
  6 11  1  0
  1 12  1  0
  1 13  1  0
  1 14  1  0
  3 15  1  0
  3 16  1  0
  4 17  1  0
  4 18  1  0
  5 19  1  0
  7 20  1  0
  8 21  1  0
  9 22  1  0
 10 23  1  0
M  END
>  <CHROM.1>  (1) 
88.85513205,79.82175642,-43.50040349,8.67145383,1.69561758,-0.53367887,1.65161889

>  <Name>  (1) 
F467

>  <RI>  (1) 
1.1744e+07

>  <Rbt.Current_Directory>  (1) 
/data/out

>  <Rbt.Executable>  (1) 
rbdock ($Id: //depot/dev/client3/rdock/2013.1/src/exe/rbdock.cxx#4 $)

>  <Rbt.Library>  (1) 
libRbt.so (2013.1, Build901 2013/11/27)

>  <Rbt.Parameter_File>  (1) 
/python_libraries/phenodiscovery/docking/templates/RDOCK_TETHER.conf

>  <Rbt.Receptor>  (1) 
/data/out/rdock-opt/grid/rdock-grid.prm

>  <SCORE>  (1) 
-0.644174

>  <SCORE.INTER>  (1) 
2.32763

>  <SCORE.INTER.CONST>  (1) 
1

>  <SCORE.INTER.POLAR>  (1) 
0

>  <SCORE.INTER.REPUL>  (1) 
0

>  <SCORE.INTER.ROT>  (1) 
3

>  <SCORE.INTER.VDW>  (1) 
-6.07237

>  <SCORE.INTER.norm>  (1) 
0.211603

>  <SCORE.INTRA>  (1) 
-2.97181

>  <SCORE.INTRA.DIHEDRAL>  (1) 
2.27446

>  <SCORE.INTRA.DIHEDRAL.0>  (1) 
2.98259

>  <SCORE.INTRA.POLAR>  (1) 
-0.915796

>  <SCORE.INTRA.POLAR.0>  (1) 
0

>  <SCORE.INTRA.REPUL>  (1) 
-0.237036

>  <SCORE.INTRA.REPUL.0>  (1) 
0.237036

>  <SCORE.INTRA.VDW>  (1) 
0.189849

>  <SCORE.INTRA.VDW.0>  (1) 
0.226258

>  <SCORE.INTRA.norm>  (1) 
-0.270164

>  <SCORE.RESTR>  (1) 
0

>  <SCORE.RESTR.CAVITY>  (1) 
0

>  <SCORE.RESTR.norm>  (1) 
0

>  <SCORE.SYSTEM>  (1) 
0

>  <SCORE.SYSTEM.CONST>  (1) 
0

>  <SCORE.SYSTEM.DIHEDRAL>  (1) 
0

>  <SCORE.SYSTEM.norm>  (1) 
0

>  <SCORE.heavy>  (1) 
11

>  <SCORE.norm>  (1) 
-0.0585613

>  <TETHERED ATOMS>  (1) 
7,8,9,10,2,3,4,5,6,11

>  <skeledock_score>  (1) 
53

$$$$
