F529
     RDKit          3D

 23 23  0  0  0  0  0  0  0  0999 V2000
  -20.0909   12.7427   26.9806 C   0  0  0  0  0  0  0  0  0  0  0  0
  -19.8145   14.1076   27.4170 N   0  0  0  0  0  0  0  0  0  0  0  0
  -19.7984   14.5053   28.8041 C   0  0  0  0  0  0  0  0  0  0  0  0
  -18.8636   13.9325   29.6915 C   0  0  0  0  0  0  0  0  0  0  0  0
  -18.8264   14.3111   31.0338 C   0  0  0  0  0  0  0  0  0  0  0  0
  -19.7223   15.2606   31.5167 C   0  0  0  0  0  0  0  0  0  0  0  0
  -20.6592   15.8362   30.6596 C   0  0  0  0  0  0  0  0  0  0  0  0
  -20.7107   15.4745   29.3023 C   0  0  0  0  0  0  0  0  0  0  0  0
  -21.9594   16.2139   28.2824 S   0  0  0  0  0  0  0  0  0  0  0  0
  -23.0873   16.7237   29.1350 O   0  0  0  0  0  0  0  0  0  0  0  0
  -22.5147   15.1944   27.3271 O   0  0  0  0  0  0  0  0  0  0  0  0
  -21.2612   17.5418   27.3221 C   0  0  0  0  0  0  0  0  0  0  0  0
  -21.0462   12.3902   27.4236 H   0  0  0  0  0  0  0  0  0  0  0  0
  -19.2608   12.0707   27.2817 H   0  0  0  0  0  0  0  0  0  0  0  0
  -20.1796   12.7114   25.8740 H   0  0  0  0  0  0  0  0  0  0  0  0
  -19.6710   14.8136   26.6645 H   0  0  0  0  0  0  0  0  0  0  0  0
  -18.1491   13.1965   29.3504 H   0  0  0  0  0  0  0  0  0  0  0  0
  -18.1002   13.8655   31.7015 H   0  0  0  0  0  0  0  0  0  0  0  0
  -19.6933   15.5498   32.5594 H   0  0  0  0  0  0  0  0  0  0  0  0
  -21.3488   16.5648   31.0646 H   0  0  0  0  0  0  0  0  0  0  0  0
  -22.0387   17.9609   26.6507 H   0  0  0  0  0  0  0  0  0  0  0  0
  -20.8855   18.3444   27.9876 H   0  0  0  0  0  0  0  0  0  0  0  0
  -20.4211   17.1523   26.7108 H   0  0  0  0  0  0  0  0  0  0  0  0
  1  2  1  0
  2  3  1  0
  3  4  2  0
  4  5  1  0
  5  6  2  0
  6  7  1  0
  7  8  2  0
  8  9  1  0
  9 10  2  0
  9 11  2  0
  9 12  1  0
  3  8  1  0
  1 13  1  0
  1 14  1  0
  1 15  1  0
  2 16  1  0
  4 17  1  0
  5 18  1  0
  6 19  1  0
  7 20  1  0
 12 21  1  0
 12 22  1  0
 12 23  1  0
M  END
>  <CHROM.1>  (1) 
62.02650178,156.57450202,-1.61483724,-0.81375737,1.09422287

>  <Name>  (1) 
F529

>  <RI>  (1) 
3.4406e+07

>  <Rbt.Current_Directory>  (1) 
/data/out

>  <Rbt.Executable>  (1) 
rbdock ($Id: //depot/dev/client3/rdock/2013.1/src/exe/rbdock.cxx#4 $)

>  <Rbt.Library>  (1) 
libRbt.so (2013.1, Build901 2013/11/27)

>  <Rbt.Parameter_File>  (1) 
/python_libraries/phenodiscovery/docking/templates/RDOCK_TETHER.conf

>  <Rbt.Receptor>  (1) 
/data/out/rdock-opt/grid/rdock-grid.prm

>  <SCORE>  (1) 
3.47128

>  <SCORE.INTER>  (1) 
0.590266

>  <SCORE.INTER.CONST>  (1) 
1

>  <SCORE.INTER.POLAR>  (1) 
0

>  <SCORE.INTER.REPUL>  (1) 
0

>  <SCORE.INTER.ROT>  (1) 
2

>  <SCORE.INTER.VDW>  (1) 
-6.80973

>  <SCORE.INTER.norm>  (1) 
0.0491888

>  <SCORE.INTRA>  (1) 
2.88102

>  <SCORE.INTRA.DIHEDRAL>  (1) 
8.22242

>  <SCORE.INTRA.DIHEDRAL.0>  (1) 
2.70916

>  <SCORE.INTRA.POLAR>  (1) 
0.00444962

>  <SCORE.INTRA.POLAR.0>  (1) 
-0.00444962

>  <SCORE.INTRA.REPUL>  (1) 
0

>  <SCORE.INTRA.REPUL.0>  (1) 
0

>  <SCORE.INTRA.VDW>  (1) 
-1.24532

>  <SCORE.INTRA.VDW.0>  (1) 
-1.13799

>  <SCORE.INTRA.norm>  (1) 
0.240085

>  <SCORE.RESTR>  (1) 
0

>  <SCORE.RESTR.CAVITY>  (1) 
0

>  <SCORE.RESTR.norm>  (1) 
0

>  <SCORE.SYSTEM>  (1) 
0

>  <SCORE.SYSTEM.CONST>  (1) 
0

>  <SCORE.SYSTEM.DIHEDRAL>  (1) 
0

>  <SCORE.SYSTEM.norm>  (1) 
0

>  <SCORE.heavy>  (1) 
12

>  <SCORE.norm>  (1) 
0.289274

>  <TETHERED ATOMS>  (1) 
3,8,7,6,5,1,2

>  <skeledock_score>  (1) 
40

$$$$
