F579
     RDKit          3D

 29 31  0  0  0  0  0  0  0  0999 V2000
  -17.6764   14.1765   23.9971 C   0  0  0  0  0  0  0  0  0  0  0  0
  -17.3561   14.5597   25.3304 O   0  0  0  0  0  0  0  0  0  0  0  0
  -18.3009   14.7329   26.3523 C   0  0  0  0  0  0  0  0  0  0  0  0
  -18.3212   15.8866   27.1812 C   0  0  0  0  0  0  0  0  0  0  0  0
  -19.2869   16.0276   28.1978 C   0  0  0  0  0  0  0  0  0  0  0  0
  -20.2229   15.0118   28.3773 C   0  0  0  0  0  0  0  0  0  0  0  0
  -21.1983   15.0254   29.3204 N   0  0  0  0  0  0  0  0  0  0  0  0
  -21.9493   13.8989   29.2485 C   0  0  0  0  0  0  0  0  0  0  0  0
  -23.0587   13.6181   30.1134 N   0  0  0  0  0  0  0  0  0  0  0  0
  -23.4902   14.4987   31.1713 C   0  0  0  0  0  0  0  0  0  0  0  0
  -22.8808   15.5831   31.3723 O   0  0  0  0  0  0  0  0  0  0  0  0
  -24.6618   14.1850   32.0743 C   0  0  0  0  0  0  0  0  0  0  0  0
  -24.4924   14.4844   33.5563 C   0  0  0  0  0  0  0  0  0  0  0  0
  -25.3910   15.3661   32.6972 C   0  0  0  0  0  0  0  0  0  0  0  0
  -21.4319   12.8503   28.0232 S   0  0  0  0  0  0  0  0  0  0  0  0
  -20.1959   13.8874   27.5668 C   0  0  0  0  0  0  0  0  0  0  0  0
  -19.2556   13.7218   26.5536 C   0  0  0  0  0  0  0  0  0  0  0  0
  -18.1666   13.1801   23.9936 H   0  0  0  0  0  0  0  0  0  0  0  0
  -16.7417   14.1149   23.4030 H   0  0  0  0  0  0  0  0  0  0  0  0
  -18.3441   14.9326   23.5325 H   0  0  0  0  0  0  0  0  0  0  0  0
  -17.5973   16.6785   27.0473 H   0  0  0  0  0  0  0  0  0  0  0  0
  -19.2987   16.9087   28.8267 H   0  0  0  0  0  0  0  0  0  0  0  0
  -23.5599   12.7203   29.9420 H   0  0  0  0  0  0  0  0  0  0  0  0
  -25.3027   13.3068   31.8433 H   0  0  0  0  0  0  0  0  0  0  0  0
  -23.5399   14.9573   33.8708 H   0  0  0  0  0  0  0  0  0  0  0  0
  -25.0509   13.7985   34.2278 H   0  0  0  0  0  0  0  0  0  0  0  0
  -26.4754   15.1962   32.8659 H   0  0  0  0  0  0  0  0  0  0  0  0
  -24.9872   16.3774   32.4872 H   0  0  0  0  0  0  0  0  0  0  0  0
  -19.2605   12.8327   25.9361 H   0  0  0  0  0  0  0  0  0  0  0  0
  1  2  1  0
  2  3  1  0
  3  4  2  0
  4  5  1  0
  5  6  2  0
  6  7  1  0
  7  8  2  0
  8  9  1  0
  9 10  1  0
 10 11  2  0
 10 12  1  0
 12 13  1  0
 13 14  1  0
  8 15  1  0
 15 16  1  0
 16 17  2  0
  3 17  1  0
  6 16  1  0
 14 12  1  0
  1 18  1  0
  1 19  1  0
  1 20  1  0
  4 21  1  0
  5 22  1  0
  9 23  1  0
 12 24  1  0
 13 25  1  0
 13 26  1  0
 14 27  1  0
 14 28  1  0
 17 29  1  0
M  END
>  <CHROM.1>  (1) 
-131.24346282,-0.81539270,137.82990318,0.17043181,0.66344133,0.61020388

>  <Name>  (1) 
F579

>  <RI>  (1) 
4.2508e+07

>  <Rbt.Current_Directory>  (1) 
/data/out

>  <Rbt.Executable>  (1) 
rbdock ($Id: //depot/dev/client3/rdock/2013.1/src/exe/rbdock.cxx#4 $)

>  <Rbt.Library>  (1) 
libRbt.so (2013.1, Build901 2013/11/27)

>  <Rbt.Parameter_File>  (1) 
/python_libraries/phenodiscovery/docking/templates/RDOCK_TETHER.conf

>  <Rbt.Receptor>  (1) 
/data/out/rdock-opt/grid/rdock-grid.prm

>  <SCORE>  (1) 
-1.00669

>  <SCORE.INTER>  (1) 
-3.23919

>  <SCORE.INTER.CONST>  (1) 
1

>  <SCORE.INTER.POLAR>  (1) 
-0.648726

>  <SCORE.INTER.REPUL>  (1) 
0

>  <SCORE.INTER.ROT>  (1) 
3

>  <SCORE.INTER.VDW>  (1) 
-9.43353

>  <SCORE.INTER.norm>  (1) 
-0.190541

>  <SCORE.INTRA>  (1) 
2.23251

>  <SCORE.INTRA.DIHEDRAL>  (1) 
3.42114

>  <SCORE.INTRA.DIHEDRAL.0>  (1) 
1.83795

>  <SCORE.INTRA.POLAR>  (1) 
0

>  <SCORE.INTRA.POLAR.0>  (1) 
0

>  <SCORE.INTRA.REPUL>  (1) 
0

>  <SCORE.INTRA.REPUL.0>  (1) 
0

>  <SCORE.INTRA.VDW>  (1) 
0.521938

>  <SCORE.INTRA.VDW.0>  (1) 
-0.89096

>  <SCORE.INTRA.norm>  (1) 
0.131324

>  <SCORE.RESTR>  (1) 
0

>  <SCORE.RESTR.CAVITY>  (1) 
0

>  <SCORE.RESTR.norm>  (1) 
0

>  <SCORE.SYSTEM>  (1) 
0

>  <SCORE.SYSTEM.CONST>  (1) 
0

>  <SCORE.SYSTEM.DIHEDRAL>  (1) 
0

>  <SCORE.SYSTEM.norm>  (1) 
0

>  <SCORE.heavy>  (1) 
17

>  <SCORE.norm>  (1) 
-0.0592169

>  <TETHERED ATOMS>  (1) 
5,6,7,8,3,17,16,15,4

>  <skeledock_score>  (1) 
39

$$$$
