F603
     RDKit          3D

 24 25  0  0  0  0  0  0  0  0999 V2000
  -18.4754   14.6567   24.6297 C   0  0  0  0  0  0  0  0  0  0  0  0
  -19.3699   13.1445   24.9165 S   0  0  0  0  0  0  0  0  0  0  0  0
  -19.1069   12.1941   23.7829 O   0  0  0  0  0  0  0  0  0  0  0  0
  -20.8419   13.4397   24.9808 O   0  0  0  0  0  0  0  0  0  0  0  0
  -18.8334   12.3929   26.4443 C   0  0  0  0  0  0  0  0  0  0  0  0
  -19.1416   13.2810   27.6081 C   0  0  0  0  0  0  0  0  0  0  0  0
  -20.0721   14.2717   27.5543 N   0  0  0  0  0  0  0  0  0  0  0  0
  -20.0191   14.7945   28.7923 C   0  0  0  0  0  0  0  0  0  0  0  0
  -20.7685   15.8510   29.3050 C   0  0  0  0  0  0  0  0  0  0  0  0
  -20.5374   16.2283   30.6421 C   0  0  0  0  0  0  0  0  0  0  0  0
  -19.5739   15.5472   31.4221 C   0  0  0  0  0  0  0  0  0  0  0  0
  -18.8339   14.4836   30.8713 C   0  0  0  0  0  0  0  0  0  0  0  0
  -19.0913   14.1397   29.5462 C   0  0  0  0  0  0  0  0  0  0  0  0
  -18.5226   13.1772   28.8108 N   0  0  0  0  0  0  0  0  0  0  0  0
  -18.7711   15.0826   23.6488 H   0  0  0  0  0  0  0  0  0  0  0  0
  -17.3856   14.4485   24.6280 H   0  0  0  0  0  0  0  0  0  0  0  0
  -18.7092   15.3870   25.4318 H   0  0  0  0  0  0  0  0  0  0  0  0
  -19.3426   11.4157   26.5775 H   0  0  0  0  0  0  0  0  0  0  0  0
  -17.7386   12.2158   26.3871 H   0  0  0  0  0  0  0  0  0  0  0  0
  -21.5027   16.3645   28.6978 H   0  0  0  0  0  0  0  0  0  0  0  0
  -21.1006   17.0446   31.0752 H   0  0  0  0  0  0  0  0  0  0  0  0
  -19.4042   15.8453   32.4484 H   0  0  0  0  0  0  0  0  0  0  0  0
  -18.0935   13.9537   31.4563 H   0  0  0  0  0  0  0  0  0  0  0  0
  -17.7742   12.5076   29.0973 H   0  0  0  0  0  0  0  0  0  0  0  0
  1  2  1  0
  2  3  2  0
  2  4  2  0
  2  5  1  0
  5  6  1  0
  6  7  2  0
  7  8  1  0
  8  9  2  0
  9 10  1  0
 10 11  2  0
 11 12  1  0
 12 13  2  0
 13 14  1  0
 14  6  1  0
  8 13  1  0
  1 15  1  0
  1 16  1  0
  1 17  1  0
  5 18  1  0
  5 19  1  0
  9 20  1  0
 10 21  1  0
 11 22  1  0
 12 23  1  0
 14 24  1  0
M  END
>  <CHROM.1>  (1) 
63.08925630,20.04743670,0.83054124,0.77733021,-2.01022543

>  <Name>  (1) 
F603

>  <RI>  (1) 
3.08354e+07

>  <Rbt.Current_Directory>  (1) 
/data/out

>  <Rbt.Executable>  (1) 
rbdock ($Id: //depot/dev/client3/rdock/2013.1/src/exe/rbdock.cxx#4 $)

>  <Rbt.Library>  (1) 
libRbt.so (2013.1, Build901 2013/11/27)

>  <Rbt.Parameter_File>  (1) 
/python_libraries/phenodiscovery/docking/templates/RDOCK_TETHER.conf

>  <Rbt.Receptor>  (1) 
/data/out/rdock-opt/grid/rdock-grid.prm

>  <SCORE>  (1) 
-2.33244

>  <SCORE.INTER>  (1) 
-2.47288

>  <SCORE.INTER.CONST>  (1) 
1

>  <SCORE.INTER.POLAR>  (1) 
0

>  <SCORE.INTER.REPUL>  (1) 
0

>  <SCORE.INTER.ROT>  (1) 
2

>  <SCORE.INTER.VDW>  (1) 
-9.87288

>  <SCORE.INTER.norm>  (1) 
-0.176634

>  <SCORE.INTRA>  (1) 
0.140443

>  <SCORE.INTRA.DIHEDRAL>  (1) 
-0.0419537

>  <SCORE.INTRA.DIHEDRAL.0>  (1) 
1.40173

>  <SCORE.INTRA.POLAR>  (1) 
0

>  <SCORE.INTRA.POLAR.0>  (1) 
0

>  <SCORE.INTRA.REPUL>  (1) 
0

>  <SCORE.INTRA.REPUL.0>  (1) 
0

>  <SCORE.INTRA.VDW>  (1) 
0.16142

>  <SCORE.INTRA.VDW.0>  (1) 
-2.15578

>  <SCORE.INTRA.norm>  (1) 
0.0100316

>  <SCORE.RESTR>  (1) 
0

>  <SCORE.RESTR.CAVITY>  (1) 
0

>  <SCORE.RESTR.norm>  (1) 
0

>  <SCORE.SYSTEM>  (1) 
0

>  <SCORE.SYSTEM.CONST>  (1) 
0

>  <SCORE.SYSTEM.DIHEDRAL>  (1) 
0

>  <SCORE.SYSTEM.norm>  (1) 
0

>  <SCORE.heavy>  (1) 
14

>  <SCORE.norm>  (1) 
-0.166603

>  <TETHERED ATOMS>  (1) 
8,9,10,11,12,13,14

>  <skeledock_score>  (1) 
35

$$$$
