F274
     RDKit          3D

 26 27  0  0  0  0  0  0  0  0999 V2000
  -20.7482   12.5939   26.4826 C   0  0  0  0  0  0  0  0  0  0  0  0
  -19.7325   13.6631   26.7074 C   0  0  0  0  0  0  0  0  0  0  0  0
  -18.6854   13.6049   27.6024 C   0  0  0  0  0  0  0  0  0  0  0  0
  -18.0513   14.8160   27.4264 C   0  0  0  0  0  0  0  0  0  0  0  0
  -16.8230   15.2844   28.1405 C   0  0  0  0  0  0  0  0  0  0  0  0
  -17.0213   16.6416   28.6591 N   0  0  0  0  0  0  0  0  0  0  0  0
  -18.2540   17.1591   28.6293 N   0  0  0  0  0  0  0  0  0  0  0  0
  -18.5278   18.4067   29.0952 C   0  0  0  0  0  0  0  0  0  0  0  0
  -19.9262   18.9338   29.0488 C   0  0  0  0  0  0  0  0  0  0  0  0
  -17.4946   19.1775   29.6293 C   0  0  0  0  0  0  0  0  0  0  0  0
  -16.2069   18.6524   29.6648 C   0  0  0  0  0  0  0  0  0  0  0  0
  -15.9772   17.3681   29.1702 C   0  0  0  0  0  0  0  0  0  0  0  0
  -14.8097   16.8911   29.1994 O   0  0  0  0  0  0  0  0  0  0  0  0
  -18.6863   15.5028   26.5050 O   0  0  0  0  0  0  0  0  0  0  0  0
  -19.7088   14.8383   26.0484 N   0  0  0  0  0  0  0  0  0  0  0  0
  -21.4726   12.9100   25.7027 H   0  0  0  0  0  0  0  0  0  0  0  0
  -20.2425   11.6632   26.1505 H   0  0  0  0  0  0  0  0  0  0  0  0
  -21.2969   12.3962   27.4271 H   0  0  0  0  0  0  0  0  0  0  0  0
  -18.4207   12.8003   28.2759 H   0  0  0  0  0  0  0  0  0  0  0  0
  -15.9714   15.2671   27.4252 H   0  0  0  0  0  0  0  0  0  0  0  0
  -16.5710   14.5898   28.9710 H   0  0  0  0  0  0  0  0  0  0  0  0
  -20.5962   18.2163   28.5293 H   0  0  0  0  0  0  0  0  0  0  0  0
  -20.3010   19.0899   30.0821 H   0  0  0  0  0  0  0  0  0  0  0  0
  -19.9469   19.8998   28.5016 H   0  0  0  0  0  0  0  0  0  0  0  0
  -17.6853   20.1724   30.0122 H   0  0  0  0  0  0  0  0  0  0  0  0
  -15.3940   19.2397   30.0742 H   0  0  0  0  0  0  0  0  0  0  0  0
  1  2  1  0
  2  3  1  0
  3  4  2  0
  4  5  1  0
  5  6  1  0
  6  7  1  0
  7  8  2  0
  8  9  1  0
  8 10  1  0
 10 11  2  0
 11 12  1  0
 12 13  2  0
  4 14  1  0
 14 15  1  0
  2 15  2  0
 12  6  1  0
  1 16  1  0
  1 17  1  0
  1 18  1  0
  3 19  1  0
  5 20  1  0
  5 21  1  0
  9 22  1  0
  9 23  1  0
  9 24  1  0
 10 25  1  0
 11 26  1  0
M  END
>  <CHROM.1>  (1) 
-131.43405360,10.47106527,2.50273635,0.62018604,2.61841013

>  <Name>  (1) 
F274

>  <RI>  (1) 
9.73656e+06

>  <Rbt.Current_Directory>  (1) 
/data/out

>  <Rbt.Executable>  (1) 
rbdock ($Id: //depot/dev/client3/rdock/2013.1/src/exe/rbdock.cxx#4 $)

>  <Rbt.Library>  (1) 
libRbt.so (2013.1, Build901 2013/11/27)

>  <Rbt.Parameter_File>  (1) 
/python_libraries/phenodiscovery/docking/templates/RDOCK_TETHER.conf

>  <Rbt.Receptor>  (1) 
/data/out/rdock-opt/grid/rdock-grid.prm

>  <SCORE>  (1) 
-5.01382

>  <SCORE.INTER>  (1) 
-4.6955

>  <SCORE.INTER.CONST>  (1) 
1

>  <SCORE.INTER.POLAR>  (1) 
-0.846306

>  <SCORE.INTER.REPUL>  (1) 
0.00913993

>  <SCORE.INTER.ROT>  (1) 
2

>  <SCORE.INTER.VDW>  (1) 
-9.26376

>  <SCORE.INTER.norm>  (1) 
-0.313033

>  <SCORE.INTRA>  (1) 
-0.318323

>  <SCORE.INTRA.DIHEDRAL>  (1) 
-1.89847

>  <SCORE.INTRA.DIHEDRAL.0>  (1) 
4.71093

>  <SCORE.INTRA.POLAR>  (1) 
0

>  <SCORE.INTRA.POLAR.0>  (1) 
0

>  <SCORE.INTRA.REPUL>  (1) 
0

>  <SCORE.INTRA.REPUL.0>  (1) 
0

>  <SCORE.INTRA.VDW>  (1) 
0.630912

>  <SCORE.INTRA.VDW.0>  (1) 
-1.39606

>  <SCORE.INTRA.norm>  (1) 
-0.0212216

>  <SCORE.RESTR>  (1) 
0

>  <SCORE.RESTR.CAVITY>  (1) 
0

>  <SCORE.RESTR.norm>  (1) 
0

>  <SCORE.SYSTEM>  (1) 
0

>  <SCORE.SYSTEM.CONST>  (1) 
0

>  <SCORE.SYSTEM.DIHEDRAL>  (1) 
0

>  <SCORE.SYSTEM.norm>  (1) 
0

>  <SCORE.heavy>  (1) 
15

>  <SCORE.norm>  (1) 
-0.334255

>  <TETHERED ATOMS>  (1) 
1,2,3,4,14,15

>  <skeledock_score>  (1) 
31

$$$$
