F205
     RDKit          3D

 20 20  0  0  0  0  0  0  0  0999 V2000
  -20.8649   15.7986   26.7254 C   0  0  0  0  0  0  0  0  0  0  0  0
  -19.8527   14.7984   26.2189 C   0  0  0  0  0  0  0  0  0  0  0  0
  -19.6579   14.6895   24.8346 C   0  0  0  0  0  0  0  0  0  0  0  0
  -18.7358   13.7811   24.3322 C   0  0  0  0  0  0  0  0  0  0  0  0
  -18.0032   12.9768   25.2028 C   0  0  0  0  0  0  0  0  0  0  0  0
  -17.0534   12.0418   24.6759 N   0  0  0  0  0  0  0  0  0  0  0  0
  -18.2116   13.0995   26.5881 C   0  0  0  0  0  0  0  0  0  0  0  0
  -17.5453   12.3684   27.3725 O   0  0  0  0  0  0  0  0  0  0  0  0
  -19.1280   14.0025   27.0820 N   0  0  0  0  0  0  0  0  0  0  0  0
  -19.3400   14.1243   28.5375 C   0  0  0  0  0  0  0  0  0  0  0  0
  -21.6602   15.2763   27.2964 H   0  0  0  0  0  0  0  0  0  0  0  0
  -21.3526   16.3504   25.8936 H   0  0  0  0  0  0  0  0  0  0  0  0
  -20.3663   16.5439   27.3788 H   0  0  0  0  0  0  0  0  0  0  0  0
  -20.2182   15.3064   24.1427 H   0  0  0  0  0  0  0  0  0  0  0  0
  -18.5919   13.7038   23.2617 H   0  0  0  0  0  0  0  0  0  0  0  0
  -16.9049   11.9573   23.6455 H   0  0  0  0  0  0  0  0  0  0  0  0
  -16.4897   11.4257   25.3027 H   0  0  0  0  0  0  0  0  0  0  0  0
  -19.1005   15.1560   28.8708 H   0  0  0  0  0  0  0  0  0  0  0  0
  -20.3954   13.8878   28.7883 H   0  0  0  0  0  0  0  0  0  0  0  0
  -18.7018   13.4345   29.1273 H   0  0  0  0  0  0  0  0  0  0  0  0
  1  2  1  0
  2  3  2  0
  3  4  1  0
  4  5  2  0
  5  6  1  0
  5  7  1  0
  7  8  2  0
  7  9  1  0
  9 10  1  0
  9  2  1  0
  1 11  1  0
  1 12  1  0
  1 13  1  0
  3 14  1  0
  4 15  1  0
  6 16  1  0
  6 17  1  0
 10 18  1  0
 10 19  1  0
 10 20  1  0
M  END
>  <CHROM.1>  (1) 
1.77782928,-0.79454351,1.63572552

>  <Name>  (1) 
F205

>  <RI>  (1) 
1.07681e+07

>  <Rbt.Current_Directory>  (1) 
/data/out

>  <Rbt.Executable>  (1) 
rbdock ($Id: //depot/dev/client3/rdock/2013.1/src/exe/rbdock.cxx#4 $)

>  <Rbt.Library>  (1) 
libRbt.so (2013.1, Build901 2013/11/27)

>  <Rbt.Parameter_File>  (1) 
/python_libraries/phenodiscovery/docking/templates/RDOCK_TETHER.conf

>  <Rbt.Receptor>  (1) 
/data/out/rdock-opt/grid/rdock-grid.prm

>  <SCORE>  (1) 
-3.33918

>  <SCORE.INTER>  (1) 
-3.33918

>  <SCORE.INTER.CONST>  (1) 
1

>  <SCORE.INTER.POLAR>  (1) 
-0.486915

>  <SCORE.INTER.REPUL>  (1) 
0

>  <SCORE.INTER.ROT>  (1) 
0

>  <SCORE.INTER.VDW>  (1) 
-7.08366

>  <SCORE.INTER.norm>  (1) 
-0.333918

>  <SCORE.INTRA>  (1) 
0

>  <SCORE.INTRA.DIHEDRAL>  (1) 
0

>  <SCORE.INTRA.DIHEDRAL.0>  (1) 
0

>  <SCORE.INTRA.POLAR>  (1) 
0

>  <SCORE.INTRA.POLAR.0>  (1) 
0

>  <SCORE.INTRA.REPUL>  (1) 
0

>  <SCORE.INTRA.REPUL.0>  (1) 
0

>  <SCORE.INTRA.VDW>  (1) 
0

>  <SCORE.INTRA.VDW.0>  (1) 
0

>  <SCORE.INTRA.norm>  (1) 
0

>  <SCORE.RESTR>  (1) 
0

>  <SCORE.RESTR.CAVITY>  (1) 
0

>  <SCORE.RESTR.norm>  (1) 
0

>  <SCORE.SYSTEM>  (1) 
0

>  <SCORE.SYSTEM.CONST>  (1) 
0

>  <SCORE.SYSTEM.DIHEDRAL>  (1) 
0

>  <SCORE.SYSTEM.norm>  (1) 
0

>  <SCORE.heavy>  (1) 
10

>  <SCORE.norm>  (1) 
-0.333918

>  <TETHERED ATOMS>  (1) 
2,3,4,5,7,9,10

>  <skeledock_score>  (1) 
37

$$$$
