F650
     RDKit          3D

 23 24  0  0  0  0  0  0  0  0999 V2000
  -19.2752   11.5251   26.4987 O   0  0  0  0  0  0  0  0  0  0  0  0
  -18.8171   12.5648   25.9515 C   0  0  0  0  0  0  0  0  0  0  0  0
  -18.2036   12.4635   24.6517 N   0  0  0  0  0  0  0  0  0  0  0  0
  -18.2785   11.2479   23.8564 C   0  0  0  0  0  0  0  0  0  0  0  0
  -17.3900   11.4914   22.6450 C   0  0  0  0  0  0  0  0  0  0  0  0
  -16.4754   12.6457   23.0378 C   0  0  0  0  0  0  0  0  0  0  0  0
  -17.2205   13.4006   24.1295 C   0  0  0  0  0  0  0  0  0  0  0  0
  -18.9118   13.8406   26.6864 C   0  0  0  0  0  0  0  0  0  0  0  0
  -18.8904   13.9909   28.0608 C   0  0  0  0  0  0  0  0  0  0  0  0
  -19.0620   15.2904   28.3687 N   0  0  0  0  0  0  0  0  0  0  0  0
  -19.2011   15.9591   27.2354 N   0  0  0  0  0  0  0  0  0  0  0  0
  -19.1245   15.1131   26.1934 C   0  0  0  0  0  0  0  0  0  0  0  0
  -19.3278   11.0537   23.5453 H   0  0  0  0  0  0  0  0  0  0  0  0
  -17.8926   10.3877   24.4460 H   0  0  0  0  0  0  0  0  0  0  0  0
  -18.0167   11.7940   21.7772 H   0  0  0  0  0  0  0  0  0  0  0  0
  -16.8064   10.5837   22.3781 H   0  0  0  0  0  0  0  0  0  0  0  0
  -16.2508   13.3005   22.1679 H   0  0  0  0  0  0  0  0  0  0  0  0
  -15.5239   12.2407   23.4477 H   0  0  0  0  0  0  0  0  0  0  0  0
  -16.5186   13.7256   24.9282 H   0  0  0  0  0  0  0  0  0  0  0  0
  -17.7350   14.2761   23.6834 H   0  0  0  0  0  0  0  0  0  0  0  0
  -18.7610   13.2042   28.7925 H   0  0  0  0  0  0  0  0  0  0  0  0
  -19.3668   16.9881   27.1782 H   0  0  0  0  0  0  0  0  0  0  0  0
  -19.2651   15.4079   25.1645 H   0  0  0  0  0  0  0  0  0  0  0  0
  1  2  2  0
  2  3  1  0
  3  4  1  0
  4  5  1  0
  5  6  1  0
  6  7  1  0
  2  8  1  0
  8  9  1  0
  9 10  2  0
 10 11  1  0
 11 12  1  0
  7  3  1  0
  8 12  2  0
  4 13  1  0
  4 14  1  0
  5 15  1  0
  5 16  1  0
  6 17  1  0
  6 18  1  0
  7 19  1  0
  7 20  1  0
  9 21  1  0
 11 22  1  0
 12 23  1  0
M  END
>  <CHROM.1>  (1) 
30.38952866,-1.39542310,-1.55672143,0.51070874

>  <Name>  (1) 
F650

>  <RI>  (1) 
2.35524e+07

>  <Rbt.Current_Directory>  (1) 
/data/out

>  <Rbt.Executable>  (1) 
rbdock ($Id: //depot/dev/client3/rdock/2013.1/src/exe/rbdock.cxx#4 $)

>  <Rbt.Library>  (1) 
libRbt.so (2013.1, Build901 2013/11/27)

>  <Rbt.Parameter_File>  (1) 
/python_libraries/phenodiscovery/docking/templates/RDOCK_TETHER.conf

>  <Rbt.Receptor>  (1) 
/data/out/rdock-opt/grid/rdock-grid.prm

>  <SCORE>  (1) 
-3.63984

>  <SCORE.INTER>  (1) 
-3.56406

>  <SCORE.INTER.CONST>  (1) 
1

>  <SCORE.INTER.POLAR>  (1) 
0

>  <SCORE.INTER.REPUL>  (1) 
0

>  <SCORE.INTER.ROT>  (1) 
1

>  <SCORE.INTER.VDW>  (1) 
-9.96406

>  <SCORE.INTER.norm>  (1) 
-0.297005

>  <SCORE.INTRA>  (1) 
-0.0757809

>  <SCORE.INTRA.DIHEDRAL>  (1) 
1.35246

>  <SCORE.INTRA.DIHEDRAL.0>  (1) 
2.08141

>  <SCORE.INTRA.POLAR>  (1) 
0

>  <SCORE.INTRA.POLAR.0>  (1) 
0

>  <SCORE.INTRA.REPUL>  (1) 
0

>  <SCORE.INTRA.REPUL.0>  (1) 
0

>  <SCORE.INTRA.VDW>  (1) 
-0.752013

>  <SCORE.INTRA.VDW.0>  (1) 
-0.113666

>  <SCORE.INTRA.norm>  (1) 
-0.00631508

>  <SCORE.RESTR>  (1) 
0

>  <SCORE.RESTR.CAVITY>  (1) 
0

>  <SCORE.RESTR.norm>  (1) 
0

>  <SCORE.SYSTEM>  (1) 
0

>  <SCORE.SYSTEM.CONST>  (1) 
0

>  <SCORE.SYSTEM.DIHEDRAL>  (1) 
0

>  <SCORE.SYSTEM.norm>  (1) 
0

>  <SCORE.heavy>  (1) 
12

>  <SCORE.norm>  (1) 
-0.30332

>  <TETHERED ATOMS>  (1) 
1,2,8,12,11,10,9

>  <skeledock_score>  (1) 
31

$$$$
