F650
     RDKit          3D

 23 24  0  0  0  0  0  0  0  0999 V2000
  -17.8798   13.7026   28.5790 O   0  0  0  0  0  0  0  0  0  0  0  0
  -19.0265   13.9099   28.0975 C   0  0  0  0  0  0  0  0  0  0  0  0
  -19.4100   13.2448   26.8787 N   0  0  0  0  0  0  0  0  0  0  0  0
  -20.7859   12.9948   26.4770 C   0  0  0  0  0  0  0  0  0  0  0  0
  -20.7160   11.8638   25.4603 C   0  0  0  0  0  0  0  0  0  0  0  0
  -19.2746   11.8495   24.9643 C   0  0  0  0  0  0  0  0  0  0  0  0
  -18.4572   12.5001   26.0712 C   0  0  0  0  0  0  0  0  0  0  0  0
  -19.9375   14.8205   28.8185 C   0  0  0  0  0  0  0  0  0  0  0  0
  -19.9556   15.0586   30.1812 C   0  0  0  0  0  0  0  0  0  0  0  0
  -20.8760   16.0034   30.4548 N   0  0  0  0  0  0  0  0  0  0  0  0
  -21.4271   16.3740   29.3101 N   0  0  0  0  0  0  0  0  0  0  0  0
  -20.8782   15.6845   28.2950 C   0  0  0  0  0  0  0  0  0  0  0  0
  -21.4054   12.6966   27.3508 H   0  0  0  0  0  0  0  0  0  0  0  0
  -21.2078   13.8996   25.9937 H   0  0  0  0  0  0  0  0  0  0  0  0
  -21.4318   12.0211   24.6244 H   0  0  0  0  0  0  0  0  0  0  0  0
  -20.9442   10.8973   25.9618 H   0  0  0  0  0  0  0  0  0  0  0  0
  -18.9273   10.8143   24.7557 H   0  0  0  0  0  0  0  0  0  0  0  0
  -19.1962   12.4574   24.0361 H   0  0  0  0  0  0  0  0  0  0  0  0
  -17.9657   11.7199   26.6928 H   0  0  0  0  0  0  0  0  0  0  0  0
  -17.6913   13.1849   25.6471 H   0  0  0  0  0  0  0  0  0  0  0  0
  -19.3350   14.5788   30.9265 H   0  0  0  0  0  0  0  0  0  0  0  0
  -22.1629   17.1092   29.2243 H   0  0  0  0  0  0  0  0  0  0  0  0
  -21.1173   15.8456   27.2541 H   0  0  0  0  0  0  0  0  0  0  0  0
  1  2  2  0
  2  3  1  0
  3  4  1  0
  4  5  1  0
  5  6  1  0
  6  7  1  0
  2  8  1  0
  8  9  1  0
  9 10  2  0
 10 11  1  0
 11 12  1  0
  7  3  1  0
  8 12  2  0
  4 13  1  0
  4 14  1  0
  5 15  1  0
  5 16  1  0
  6 17  1  0
  6 18  1  0
  7 19  1  0
  7 20  1  0
  9 21  1  0
 11 22  1  0
 12 23  1  0
M  END
>  <CHROM.1>  (1) 
-28.74335306,-0.43249557,-0.63732624,1.40513265

>  <Name>  (1) 
F650

>  <RI>  (1) 
2.31462e+07

>  <Rbt.Current_Directory>  (1) 
/data/out

>  <Rbt.Executable>  (1) 
rbdock ($Id: //depot/dev/client3/rdock/2013.1/src/exe/rbdock.cxx#4 $)

>  <Rbt.Library>  (1) 
libRbt.so (2013.1, Build901 2013/11/27)

>  <Rbt.Parameter_File>  (1) 
/python_libraries/phenodiscovery/docking/templates/RDOCK_TETHER.conf

>  <Rbt.Receptor>  (1) 
/data/out/rdock-opt/grid/rdock-grid.prm

>  <SCORE>  (1) 
-1.56226

>  <SCORE.INTER>  (1) 
-1.47754

>  <SCORE.INTER.CONST>  (1) 
1

>  <SCORE.INTER.POLAR>  (1) 
0

>  <SCORE.INTER.REPUL>  (1) 
0

>  <SCORE.INTER.ROT>  (1) 
1

>  <SCORE.INTER.VDW>  (1) 
-7.87754

>  <SCORE.INTER.norm>  (1) 
-0.123128

>  <SCORE.INTRA>  (1) 
-0.0847215

>  <SCORE.INTRA.DIHEDRAL>  (1) 
0.471342

>  <SCORE.INTRA.DIHEDRAL.0>  (1) 
2.68405

>  <SCORE.INTRA.POLAR>  (1) 
0

>  <SCORE.INTRA.POLAR.0>  (1) 
0

>  <SCORE.INTRA.REPUL>  (1) 
0

>  <SCORE.INTRA.REPUL.0>  (1) 
0

>  <SCORE.INTRA.VDW>  (1) 
-0.320392

>  <SCORE.INTRA.VDW.0>  (1) 
-0.258115

>  <SCORE.INTRA.norm>  (1) 
-0.00706013

>  <SCORE.RESTR>  (1) 
0

>  <SCORE.RESTR.CAVITY>  (1) 
0

>  <SCORE.RESTR.norm>  (1) 
0

>  <SCORE.SYSTEM>  (1) 
0

>  <SCORE.SYSTEM.CONST>  (1) 
0

>  <SCORE.SYSTEM.DIHEDRAL>  (1) 
0

>  <SCORE.SYSTEM.norm>  (1) 
0

>  <SCORE.heavy>  (1) 
12

>  <SCORE.norm>  (1) 
-0.130188

>  <TETHERED ATOMS>  (1) 
1,2,8,12,11,10,9

>  <skeledock_score>  (1) 
36

$$$$
