F13
     RDKit          3D

 16 16  0  0  0  0  0  0  0  0999 V2000
  -20.7455   13.8090   28.8695 Br  0  0  0  0  0  0  0  0  0  0  0  0
  -19.2383   13.4016   27.7757 C   0  0  0  0  0  0  0  0  0  0  0  0
  -19.1621   13.4695   26.4035 C   0  0  0  0  0  0  0  0  0  0  0  0
  -17.9180   13.1052   26.0410 N   0  0  0  0  0  0  0  0  0  0  0  0
  -17.3883   13.0917   24.6805 C   0  0  0  0  0  0  0  0  0  0  0  0
  -18.0528   11.9898   23.8548 C   0  0  0  0  0  0  0  0  0  0  0  0
  -17.8047   10.7308   24.4205 O   0  0  0  0  0  0  0  0  0  0  0  0
  -17.1965   12.8237   27.1159 N   0  0  0  0  0  0  0  0  0  0  0  0
  -17.9884   12.9941   28.1934 C   0  0  0  0  0  0  0  0  0  0  0  0
  -19.9481   13.7717   25.7234 H   0  0  0  0  0  0  0  0  0  0  0  0
  -17.5848   14.0753   24.2019 H   0  0  0  0  0  0  0  0  0  0  0  0
  -16.2872   12.9358   24.6985 H   0  0  0  0  0  0  0  0  0  0  0  0
  -17.6257   12.0050   22.8299 H   0  0  0  0  0  0  0  0  0  0  0  0
  -19.1476   12.1785   23.7666 H   0  0  0  0  0  0  0  0  0  0  0  0
  -16.8198   10.6057   24.4203 H   0  0  0  0  0  0  0  0  0  0  0  0
  -17.6722   12.8376   29.2159 H   0  0  0  0  0  0  0  0  0  0  0  0
  1  2  1  0
  2  3  2  0
  3  4  1  0
  4  5  1  0
  5  6  1  0
  6  7  1  0
  4  8  1  0
  8  9  2  0
  9  2  1  0
  3 10  1  0
  5 11  1  0
  5 12  1  0
  6 13  1  0
  6 14  1  0
  7 15  1  0
  9 16  1  0
M  END
>  <CHROM.1>  (1) 
-69.20344237,-60.78808004,-60.45447998,1.81574495,-0.17628423,1.39754597

>  <Name>  (1) 
F13

>  <RI>  (1) 
2.31018e+07

>  <Rbt.Current_Directory>  (1) 
/data/out

>  <Rbt.Executable>  (1) 
rbdock ($Id: //depot/dev/client3/rdock/2013.1/src/exe/rbdock.cxx#4 $)

>  <Rbt.Library>  (1) 
libRbt.so (2013.1, Build901 2013/11/27)

>  <Rbt.Parameter_File>  (1) 
/python_libraries/phenodiscovery/docking/templates/RDOCK_TETHER.conf

>  <Rbt.Receptor>  (1) 
/data/out/rdock-opt/grid/rdock-grid.prm

>  <SCORE>  (1) 
-5.77709

>  <SCORE.INTER>  (1) 
-4.56646

>  <SCORE.INTER.CONST>  (1) 
1

>  <SCORE.INTER.POLAR>  (1) 
-0.824621

>  <SCORE.INTER.REPUL>  (1) 
0

>  <SCORE.INTER.ROT>  (1) 
2

>  <SCORE.INTER.VDW>  (1) 
-9.16275

>  <SCORE.INTER.norm>  (1) 
-0.507385

>  <SCORE.INTRA>  (1) 
-1.21767

>  <SCORE.INTRA.DIHEDRAL>  (1) 
-2.68869

>  <SCORE.INTRA.DIHEDRAL.0>  (1) 
5.02725

>  <SCORE.INTRA.POLAR>  (1) 
0

>  <SCORE.INTRA.POLAR.0>  (1) 
0

>  <SCORE.INTRA.REPUL>  (1) 
0

>  <SCORE.INTRA.REPUL.0>  (1) 
0

>  <SCORE.INTRA.VDW>  (1) 
0.126679

>  <SCORE.INTRA.VDW.0>  (1) 
-0.734797

>  <SCORE.INTRA.norm>  (1) 
-0.135296

>  <SCORE.RESTR>  (1) 
0.00703839

>  <SCORE.RESTR.CAVITY>  (1) 
0.00703839

>  <SCORE.RESTR.norm>  (1) 
0.000782044

>  <SCORE.SYSTEM>  (1) 
0

>  <SCORE.SYSTEM.CONST>  (1) 
0

>  <SCORE.SYSTEM.DIHEDRAL>  (1) 
0

>  <SCORE.SYSTEM.norm>  (1) 
0

>  <SCORE.heavy>  (1) 
9

>  <SCORE.norm>  (1) 
-0.641899

>  <TETHERED ATOMS>  (1) 
2,3,4,5,6,9

>  <skeledock_score>  (1) 
25

$$$$
