F579
     RDKit          3D

 29 31  0  0  0  0  0  0  0  0999 V2000
  -17.5134   13.0380   30.1637 C   0  0  0  0  0  0  0  0  0  0  0  0
  -18.8966   13.3450   30.3038 O   0  0  0  0  0  0  0  0  0  0  0  0
  -19.4996   14.5138   29.8168 C   0  0  0  0  0  0  0  0  0  0  0  0
  -19.5514   15.6418   30.6635 C   0  0  0  0  0  0  0  0  0  0  0  0
  -20.1442   16.8409   30.2334 C   0  0  0  0  0  0  0  0  0  0  0  0
  -20.6838   16.8996   28.9493 C   0  0  0  0  0  0  0  0  0  0  0  0
  -21.2799   17.9974   28.4176 N   0  0  0  0  0  0  0  0  0  0  0  0
  -21.7096   17.7549   27.1548 C   0  0  0  0  0  0  0  0  0  0  0  0
  -22.3526   18.7647   26.3629 N   0  0  0  0  0  0  0  0  0  0  0  0
  -22.7232   20.0700   26.8342 C   0  0  0  0  0  0  0  0  0  0  0  0
  -22.3411   20.4861   27.9604 O   0  0  0  0  0  0  0  0  0  0  0  0
  -23.5128   20.9846   25.9472 C   0  0  0  0  0  0  0  0  0  0  0  0
  -22.7772   22.2488   25.5284 C   0  0  0  0  0  0  0  0  0  0  0  0
  -22.9745   21.1213   24.5305 C   0  0  0  0  0  0  0  0  0  0  0  0
  -21.3527   16.1720   26.6513 S   0  0  0  0  0  0  0  0  0  0  0  0
  -20.6321   15.7932   28.1183 C   0  0  0  0  0  0  0  0  0  0  0  0
  -20.0511   14.5926   28.5168 C   0  0  0  0  0  0  0  0  0  0  0  0
  -17.3103   12.0554   30.6366 H   0  0  0  0  0  0  0  0  0  0  0  0
  -17.2427   12.9784   29.0883 H   0  0  0  0  0  0  0  0  0  0  0  0
  -16.8976   13.8109   30.6702 H   0  0  0  0  0  0  0  0  0  0  0  0
  -19.1299   15.5856   31.6591 H   0  0  0  0  0  0  0  0  0  0  0  0
  -20.1800   17.7018   30.8887 H   0  0  0  0  0  0  0  0  0  0  0  0
  -22.5690   18.5263   25.3687 H   0  0  0  0  0  0  0  0  0  0  0  0
  -24.6130   21.0767   26.0666 H   0  0  0  0  0  0  0  0  0  0  0  0
  -21.7299   22.3509   25.8868 H   0  0  0  0  0  0  0  0  0  0  0  0
  -23.4339   23.1264   25.3504 H   0  0  0  0  0  0  0  0  0  0  0  0
  -22.0429   20.5603   24.3003 H   0  0  0  0  0  0  0  0  0  0  0  0
  -23.7478   21.3325   23.7619 H   0  0  0  0  0  0  0  0  0  0  0  0
  -20.0322   13.7533   27.8352 H   0  0  0  0  0  0  0  0  0  0  0  0
  1  2  1  0
  2  3  1  0
  3  4  2  0
  4  5  1  0
  5  6  2  0
  6  7  1  0
  7  8  2  0
  8  9  1  0
  9 10  1  0
 10 11  2  0
 10 12  1  0
 12 13  1  0
 13 14  1  0
  8 15  1  0
 15 16  1  0
 16 17  2  0
  3 17  1  0
  6 16  1  0
 14 12  1  0
  1 18  1  0
  1 19  1  0
  1 20  1  0
  4 21  1  0
  5 22  1  0
  9 23  1  0
 12 24  1  0
 13 25  1  0
 13 26  1  0
 14 27  1  0
 14 28  1  0
 17 29  1  0
M  END
>  <CHROM.1>  (1) 
-90.02414836,-6.08236072,-115.02363202,0.35666691,0.94638875,-2.33186171

>  <Name>  (1) 
F579

>  <RI>  (1) 
1.34112e+07

>  <Rbt.Current_Directory>  (1) 
/data/out

>  <Rbt.Executable>  (1) 
rbdock ($Id: //depot/dev/client3/rdock/2013.1/src/exe/rbdock.cxx#4 $)

>  <Rbt.Library>  (1) 
libRbt.so (2013.1, Build901 2013/11/27)

>  <Rbt.Parameter_File>  (1) 
/python_libraries/phenodiscovery/docking/templates/RDOCK_TETHER.conf

>  <Rbt.Receptor>  (1) 
/data/out/rdock-opt/grid/rdock-grid.prm

>  <SCORE>  (1) 
-0.0151807

>  <SCORE.INTER>  (1) 
-1.52266

>  <SCORE.INTER.CONST>  (1) 
1

>  <SCORE.INTER.POLAR>  (1) 
0

>  <SCORE.INTER.REPUL>  (1) 
0

>  <SCORE.INTER.ROT>  (1) 
3

>  <SCORE.INTER.VDW>  (1) 
-9.92266

>  <SCORE.INTER.norm>  (1) 
-0.0895685

>  <SCORE.INTRA>  (1) 
1.50748

>  <SCORE.INTRA.DIHEDRAL>  (1) 
4.87476

>  <SCORE.INTRA.DIHEDRAL.0>  (1) 
2.66195

>  <SCORE.INTRA.POLAR>  (1) 
0

>  <SCORE.INTRA.POLAR.0>  (1) 
0

>  <SCORE.INTRA.REPUL>  (1) 
0

>  <SCORE.INTRA.REPUL.0>  (1) 
0

>  <SCORE.INTRA.VDW>  (1) 
-0.929894

>  <SCORE.INTRA.VDW.0>  (1) 
-1.27507

>  <SCORE.INTRA.norm>  (1) 
0.0886755

>  <SCORE.RESTR>  (1) 
0

>  <SCORE.RESTR.CAVITY>  (1) 
0

>  <SCORE.RESTR.norm>  (1) 
0

>  <SCORE.SYSTEM>  (1) 
0

>  <SCORE.SYSTEM.CONST>  (1) 
0

>  <SCORE.SYSTEM.DIHEDRAL>  (1) 
0

>  <SCORE.SYSTEM.norm>  (1) 
0

>  <SCORE.heavy>  (1) 
17

>  <SCORE.norm>  (1) 
-0.000892982

>  <TETHERED ATOMS>  (1) 
2,3,1,6,4,17,16,5

>  <skeledock_score>  (1) 
48

$$$$
