F760
     RDKit          3D

 17 18  0  0  0  0  0  0  0  0999 V2000
  -21.5732   15.8724   26.0630 O   0  0  0  0  0  0  0  0  0  0  0  0
  -21.1591   15.5670   27.2118 C   0  0  0  0  0  0  0  0  0  0  0  0
  -20.0167   14.6301   27.4734 C   0  0  0  0  0  0  0  0  0  0  0  0
  -19.9980   14.6632   28.9679 C   0  0  0  0  0  0  0  0  0  0  0  0
  -20.9863   15.4969   29.4495 C   0  0  0  0  0  0  0  0  0  0  0  0
  -21.1725   15.6957   30.8169 C   0  0  0  0  0  0  0  0  0  0  0  0
  -20.3218   15.0210   31.7097 C   0  0  0  0  0  0  0  0  0  0  0  0
  -20.5367   15.2607   33.5918 Br  0  0  0  0  0  0  0  0  0  0  0  0
  -19.3104   14.1683   31.2202 C   0  0  0  0  0  0  0  0  0  0  0  0
  -19.1433   13.9847   29.8371 C   0  0  0  0  0  0  0  0  0  0  0  0
  -21.7381   16.0851   28.4049 N   0  0  0  0  0  0  0  0  0  0  0  0
  -19.0687   15.0276   27.0537 H   0  0  0  0  0  0  0  0  0  0  0  0
  -20.2426   13.6092   27.0998 H   0  0  0  0  0  0  0  0  0  0  0  0
  -21.9525   16.3530   31.1786 H   0  0  0  0  0  0  0  0  0  0  0  0
  -18.6573   13.6505   31.9107 H   0  0  0  0  0  0  0  0  0  0  0  0
  -18.3692   13.3317   29.4556 H   0  0  0  0  0  0  0  0  0  0  0  0
  -22.5385   16.7504   28.4892 H   0  0  0  0  0  0  0  0  0  0  0  0
  1  2  2  0
  2  3  1  0
  3  4  1  0
  4  5  2  0
  5  6  1  0
  6  7  2  0
  7  8  1  0
  7  9  1  0
  9 10  2  0
  5 11  1  0
 11  2  1  0
 10  4  1  0
  3 12  1  0
  3 13  1  0
  6 14  1  0
  9 15  1  0
 10 16  1  0
 11 17  1  0
M  END
>  <CHROM.1>  (1) 
-2.40643482,-0.69101836,1.53809118

>  <Name>  (1) 
F760

>  <RI>  (1) 
3.15142e+07

>  <Rbt.Current_Directory>  (1) 
/data/out

>  <Rbt.Executable>  (1) 
rbdock ($Id: //depot/dev/client3/rdock/2013.1/src/exe/rbdock.cxx#4 $)

>  <Rbt.Library>  (1) 
libRbt.so (2013.1, Build901 2013/11/27)

>  <Rbt.Parameter_File>  (1) 
/python_libraries/phenodiscovery/docking/templates/RDOCK_TETHER.conf

>  <Rbt.Receptor>  (1) 
/data/out/rdock-opt/grid/rdock-grid.prm

>  <SCORE>  (1) 
0.522884

>  <SCORE.INTER>  (1) 
0.522884

>  <SCORE.INTER.CONST>  (1) 
1

>  <SCORE.INTER.POLAR>  (1) 
0

>  <SCORE.INTER.REPUL>  (1) 
0

>  <SCORE.INTER.ROT>  (1) 
0

>  <SCORE.INTER.VDW>  (1) 
-4.87712

>  <SCORE.INTER.norm>  (1) 
0.0475349

>  <SCORE.INTRA>  (1) 
0

>  <SCORE.INTRA.DIHEDRAL>  (1) 
0

>  <SCORE.INTRA.DIHEDRAL.0>  (1) 
0

>  <SCORE.INTRA.POLAR>  (1) 
0

>  <SCORE.INTRA.POLAR.0>  (1) 
0

>  <SCORE.INTRA.REPUL>  (1) 
0

>  <SCORE.INTRA.REPUL.0>  (1) 
0

>  <SCORE.INTRA.VDW>  (1) 
0

>  <SCORE.INTRA.VDW.0>  (1) 
0

>  <SCORE.INTRA.norm>  (1) 
0

>  <SCORE.RESTR>  (1) 
0

>  <SCORE.RESTR.CAVITY>  (1) 
0

>  <SCORE.RESTR.norm>  (1) 
0

>  <SCORE.SYSTEM>  (1) 
0

>  <SCORE.SYSTEM.CONST>  (1) 
0

>  <SCORE.SYSTEM.DIHEDRAL>  (1) 
0

>  <SCORE.SYSTEM.norm>  (1) 
0

>  <SCORE.heavy>  (1) 
11

>  <SCORE.norm>  (1) 
0.0475349

>  <TETHERED ATOMS>  (1) 
4,10,9,7,5,6,11

>  <skeledock_score>  (1) 
33

$$$$
