F217
     RDKit          3D

 28 29  0  0  0  0  0  0  0  0999 V2000
  -16.8085   16.7279   27.0817 C   0  0  0  0  0  0  0  0  0  0  0  0
  -17.8349   16.0982   27.9743 C   0  0  0  0  0  0  0  0  0  0  0  0
  -17.5610   15.7977   29.2702 N   0  0  0  0  0  0  0  0  0  0  0  0
  -18.7188   15.2781   29.7138 C   0  0  0  0  0  0  0  0  0  0  0  0
  -19.0090   14.8443   31.0042 C   0  0  0  0  0  0  0  0  0  0  0  0
  -20.3060   14.3633   31.2585 C   0  0  0  0  0  0  0  0  0  0  0  0
  -21.2686   14.3228   30.2257 C   0  0  0  0  0  0  0  0  0  0  0  0
  -20.9465   14.7762   28.9331 C   0  0  0  0  0  0  0  0  0  0  0  0
  -19.6515   15.2580   28.7181 C   0  0  0  0  0  0  0  0  0  0  0  0
  -19.1120   15.7915   27.6074 N   0  0  0  0  0  0  0  0  0  0  0  0
  -19.7858   16.0895   26.3406 C   0  0  0  0  0  0  0  0  0  0  0  0
  -19.4509   15.0318   25.2861 C   0  0  0  0  0  0  0  0  0  0  0  0
  -19.4006   13.6426   25.8621 C   0  0  0  0  0  0  0  0  0  0  0  0
  -18.2996   13.0531   26.0410 O   0  0  0  0  0  0  0  0  0  0  0  0
  -20.6153   12.9788   26.2079 N   0  0  0  0  0  0  0  0  0  0  0  0
  -15.9160   16.0704   27.0310 H   0  0  0  0  0  0  0  0  0  0  0  0
  -16.5089   17.7100   27.5026 H   0  0  0  0  0  0  0  0  0  0  0  0
  -17.1846   16.8831   26.0520 H   0  0  0  0  0  0  0  0  0  0  0  0
  -18.2635   14.8801   31.7881 H   0  0  0  0  0  0  0  0  0  0  0  0
  -20.5663   14.0177   32.2505 H   0  0  0  0  0  0  0  0  0  0  0  0
  -22.2621   13.9458   30.4311 H   0  0  0  0  0  0  0  0  0  0  0  0
  -21.6849   14.7497   28.1437 H   0  0  0  0  0  0  0  0  0  0  0  0
  -20.8855   16.1301   26.4914 H   0  0  0  0  0  0  0  0  0  0  0  0
  -19.4800   17.0974   25.9863 H   0  0  0  0  0  0  0  0  0  0  0  0
  -20.2151   15.0535   24.4807 H   0  0  0  0  0  0  0  0  0  0  0  0
  -18.4635   15.2687   24.8347 H   0  0  0  0  0  0  0  0  0  0  0  0
  -20.5946   12.0142   26.6072 H   0  0  0  0  0  0  0  0  0  0  0  0
  -21.5366   13.4492   26.0657 H   0  0  0  0  0  0  0  0  0  0  0  0
  1  2  1  0
  2  3  2  0
  3  4  1  0
  4  5  2  0
  5  6  1  0
  6  7  2  0
  7  8  1  0
  8  9  2  0
  9 10  1  0
 10 11  1  0
 11 12  1  0
 12 13  1  0
 13 14  2  0
 13 15  1  0
 10  2  1  0
  4  9  1  0
  1 16  1  0
  1 17  1  0
  1 18  1  0
  5 19  1  0
  6 20  1  0
  7 21  1  0
  8 22  1  0
 11 23  1  0
 11 24  1  0
 12 25  1  0
 12 26  1  0
 15 27  1  0
 15 28  1  0
M  END
>  <CHROM.1>  (1) 
83.52537251,39.25830710,-106.08952460,-2.08554708,1.16206425,-1.16473427

>  <Name>  (1) 
F217

>  <RI>  (1) 
3.30748e+07

>  <Rbt.Current_Directory>  (1) 
/data/out

>  <Rbt.Executable>  (1) 
rbdock ($Id: //depot/dev/client3/rdock/2013.1/src/exe/rbdock.cxx#4 $)

>  <Rbt.Library>  (1) 
libRbt.so (2013.1, Build901 2013/11/27)

>  <Rbt.Parameter_File>  (1) 
/python_libraries/phenodiscovery/docking/templates/RDOCK_TETHER.conf

>  <Rbt.Receptor>  (1) 
/data/out/rdock-opt/grid/rdock-grid.prm

>  <SCORE>  (1) 
0.155814

>  <SCORE.INTER>  (1) 
0.193466

>  <SCORE.INTER.CONST>  (1) 
1

>  <SCORE.INTER.POLAR>  (1) 
0

>  <SCORE.INTER.REPUL>  (1) 
0

>  <SCORE.INTER.ROT>  (1) 
3

>  <SCORE.INTER.VDW>  (1) 
-8.20653

>  <SCORE.INTER.norm>  (1) 
0.0128977

>  <SCORE.INTRA>  (1) 
-0.0376517

>  <SCORE.INTRA.DIHEDRAL>  (1) 
1.68597

>  <SCORE.INTRA.DIHEDRAL.0>  (1) 
3.16555

>  <SCORE.INTRA.POLAR>  (1) 
0

>  <SCORE.INTRA.POLAR.0>  (1) 
0

>  <SCORE.INTRA.REPUL>  (1) 
0

>  <SCORE.INTRA.REPUL.0>  (1) 
0

>  <SCORE.INTRA.VDW>  (1) 
-0.880636

>  <SCORE.INTRA.VDW.0>  (1) 
-0.131783

>  <SCORE.INTRA.norm>  (1) 
-0.00251011

>  <SCORE.RESTR>  (1) 
0

>  <SCORE.RESTR.CAVITY>  (1) 
0

>  <SCORE.RESTR.norm>  (1) 
0

>  <SCORE.SYSTEM>  (1) 
0

>  <SCORE.SYSTEM.CONST>  (1) 
0

>  <SCORE.SYSTEM.DIHEDRAL>  (1) 
0

>  <SCORE.SYSTEM.norm>  (1) 
0

>  <SCORE.heavy>  (1) 
15

>  <SCORE.norm>  (1) 
0.0103876

>  <TETHERED ATOMS>  (1) 
4,5,6,7,8,9,10,11,12,13,14

>  <skeledock_score>  (1) 
56

$$$$
