F763
     RDKit          3D

 19 19  0  0  0  0  0  0  0  0999 V2000
  -20.2817   16.0214   25.6375 O   0  0  0  0  0  0  0  0  0  0  0  0
  -19.5761   14.9801   25.7356 C   0  0  0  0  0  0  0  0  0  0  0  0
  -19.3619   14.3897   26.9579 N   0  0  0  0  0  0  0  0  0  0  0  0
  -19.9668   14.9481   28.1781 C   0  0  0  0  0  0  0  0  0  0  0  0
  -21.3712   14.3787   28.3879 C   0  0  0  0  0  0  0  0  0  0  0  0
  -21.9455   14.9183   29.5464 O   0  0  0  0  0  0  0  0  0  0  0  0
  -18.6128   13.2474   27.0493 C   0  0  0  0  0  0  0  0  0  0  0  0
  -18.0330   12.6817   25.9118 C   0  0  0  0  0  0  0  0  0  0  0  0
  -18.2342   13.2804   24.6699 C   0  0  0  0  0  0  0  0  0  0  0  0
  -17.4548   12.5205   23.1006 Br  0  0  0  0  0  0  0  0  0  0  0  0
  -19.0125   14.4329   24.5782 C   0  0  0  0  0  0  0  0  0  0  0  0
  -20.0193   16.0572   28.1096 H   0  0  0  0  0  0  0  0  0  0  0  0
  -19.3390   14.7183   29.0680 H   0  0  0  0  0  0  0  0  0  0  0  0
  -21.3278   13.2676   28.4552 H   0  0  0  0  0  0  0  0  0  0  0  0
  -22.0139   14.6442   27.5221 H   0  0  0  0  0  0  0  0  0  0  0  0
  -22.8528   14.5226   29.6241 H   0  0  0  0  0  0  0  0  0  0  0  0
  -18.4566   12.7654   28.0073 H   0  0  0  0  0  0  0  0  0  0  0  0
  -17.4371   11.7821   25.9971 H   0  0  0  0  0  0  0  0  0  0  0  0
  -19.1785   14.9004   23.6152 H   0  0  0  0  0  0  0  0  0  0  0  0
  1  2  2  0
  2  3  1  0
  3  4  1  0
  4  5  1  0
  5  6  1  0
  3  7  1  0
  7  8  2  0
  8  9  1  0
  9 10  1  0
  9 11  2  0
 11  2  1  0
  4 12  1  0
  4 13  1  0
  5 14  1  0
  5 15  1  0
  6 16  1  0
  7 17  1  0
  8 18  1  0
 11 19  1  0
M  END
>  <CHROM.1>  (1) 
87.17847233,-179.68860348,179.37486998,0.56221611,0.80820037,-1.00397515

>  <Name>  (1) 
F763

>  <RI>  (1) 
1.7973e+07

>  <Rbt.Current_Directory>  (1) 
/data/out

>  <Rbt.Executable>  (1) 
rbdock ($Id: //depot/dev/client3/rdock/2013.1/src/exe/rbdock.cxx#4 $)

>  <Rbt.Library>  (1) 
libRbt.so (2013.1, Build901 2013/11/27)

>  <Rbt.Parameter_File>  (1) 
/python_libraries/phenodiscovery/docking/templates/RDOCK_TETHER.conf

>  <Rbt.Receptor>  (1) 
/data/out/rdock-opt/grid/rdock-grid.prm

>  <SCORE>  (1) 
-3.87122

>  <SCORE.INTER>  (1) 
-3.31545

>  <SCORE.INTER.CONST>  (1) 
1

>  <SCORE.INTER.POLAR>  (1) 
-0.489898

>  <SCORE.INTER.REPUL>  (1) 
0

>  <SCORE.INTER.ROT>  (1) 
2

>  <SCORE.INTER.VDW>  (1) 
-9.04979

>  <SCORE.INTER.norm>  (1) 
-0.301404

>  <SCORE.INTRA>  (1) 
-0.555767

>  <SCORE.INTRA.DIHEDRAL>  (1) 
-1.1985

>  <SCORE.INTRA.DIHEDRAL.0>  (1) 
3.73827

>  <SCORE.INTRA.POLAR>  (1) 
0

>  <SCORE.INTRA.POLAR.0>  (1) 
0

>  <SCORE.INTRA.REPUL>  (1) 
0

>  <SCORE.INTRA.REPUL.0>  (1) 
0

>  <SCORE.INTRA.VDW>  (1) 
0.0434821

>  <SCORE.INTRA.VDW.0>  (1) 
0.0395099

>  <SCORE.INTRA.norm>  (1) 
-0.0505243

>  <SCORE.RESTR>  (1) 
0

>  <SCORE.RESTR.CAVITY>  (1) 
0

>  <SCORE.RESTR.norm>  (1) 
0

>  <SCORE.SYSTEM>  (1) 
0

>  <SCORE.SYSTEM.CONST>  (1) 
0

>  <SCORE.SYSTEM.DIHEDRAL>  (1) 
0

>  <SCORE.SYSTEM.norm>  (1) 
0

>  <SCORE.heavy>  (1) 
11

>  <SCORE.norm>  (1) 
-0.351929

>  <TETHERED ATOMS>  (1) 
2,11,9,8,3,4,5,6

>  <skeledock_score>  (1) 
32

$$$$
