F488
     RDKit          3D

 38 39  0  0  0  0  0  0  0  0999 V2000
  -16.2694   12.3532   21.4034 C   0  0  0  0  0  0  0  0  0  0  0  0
  -17.0969   12.7336   22.5581 N   0  0  0  0  0  0  0  0  0  0  0  0
  -17.4707   11.5375   23.3498 C   0  0  0  0  0  0  0  0  0  0  0  0
  -17.7976   11.8512   24.8270 C   0  0  0  0  0  0  0  0  0  0  0  0
  -18.2059   13.2541   25.0070 N   0  0  0  0  0  0  0  0  0  0  0  0
  -17.4074   14.3185   24.3812 C   0  0  0  0  0  0  0  0  0  0  0  0
  -16.4078   13.7412   23.3790 C   0  0  0  0  0  0  0  0  0  0  0  0
  -19.3184   13.6253   25.8516 C   0  0  0  0  0  0  0  0  0  0  0  0
  -19.8199   14.7781   25.7527 O   0  0  0  0  0  0  0  0  0  0  0  0
  -19.9278   12.6691   26.8326 C   0  0  0  0  0  0  0  0  0  0  0  0
  -19.3354   12.8811   28.1087 O   0  0  0  0  0  0  0  0  0  0  0  0
  -19.5043   14.0322   28.8893 C   0  0  0  0  0  0  0  0  0  0  0  0
  -18.3727   14.5872   29.4961 C   0  0  0  0  0  0  0  0  0  0  0  0
  -18.4777   15.7442   30.2718 C   0  0  0  0  0  0  0  0  0  0  0  0
  -19.7255   16.3544   30.4646 C   0  0  0  0  0  0  0  0  0  0  0  0
  -19.8332   17.6195   31.2634 C   0  0  0  0  0  0  0  0  0  0  0  0
  -20.8616   15.8076   29.8492 C   0  0  0  0  0  0  0  0  0  0  0  0
  -20.7562   14.6491   29.0726 C   0  0  0  0  0  0  0  0  0  0  0  0
  -16.7897   11.5799   20.7979 H   0  0  0  0  0  0  0  0  0  0  0  0
  -16.1067   13.2339   20.7457 H   0  0  0  0  0  0  0  0  0  0  0  0
  -15.2820   11.9567   21.7299 H   0  0  0  0  0  0  0  0  0  0  0  0
  -18.3682   11.0810   22.8788 H   0  0  0  0  0  0  0  0  0  0  0  0
  -16.6629   10.7698   23.3328 H   0  0  0  0  0  0  0  0  0  0  0  0
  -18.5802   11.1436   25.1698 H   0  0  0  0  0  0  0  0  0  0  0  0
  -16.8911   11.6695   25.4444 H   0  0  0  0  0  0  0  0  0  0  0  0
  -16.8673   14.8935   25.1640 H   0  0  0  0  0  0  0  0  0  0  0  0
  -18.0832   15.0119   23.8340 H   0  0  0  0  0  0  0  0  0  0  0  0
  -15.5415   13.2899   23.9150 H   0  0  0  0  0  0  0  0  0  0  0  0
  -16.0281   14.5734   22.7447 H   0  0  0  0  0  0  0  0  0  0  0  0
  -21.0266   12.8258   26.8818 H   0  0  0  0  0  0  0  0  0  0  0  0
  -19.7391   11.6239   26.5040 H   0  0  0  0  0  0  0  0  0  0  0  0
  -17.4039   14.1242   29.3570 H   0  0  0  0  0  0  0  0  0  0  0  0
  -17.5864   16.1642   30.7215 H   0  0  0  0  0  0  0  0  0  0  0  0
  -19.0607   17.6461   32.0612 H   0  0  0  0  0  0  0  0  0  0  0  0
  -19.6916   18.4925   30.5927 H   0  0  0  0  0  0  0  0  0  0  0  0
  -20.8299   17.6929   31.7484 H   0  0  0  0  0  0  0  0  0  0  0  0
  -21.8298   16.2778   29.9708 H   0  0  0  0  0  0  0  0  0  0  0  0
  -21.6492   14.2460   28.6149 H   0  0  0  0  0  0  0  0  0  0  0  0
  1  2  1  0
  2  3  1  0
  3  4  1  0
  4  5  1  0
  5  6  1  0
  6  7  1  0
  5  8  1  0
  8  9  2  0
  8 10  1  0
 10 11  1  0
 11 12  1  0
 12 13  2  0
 13 14  1  0
 14 15  2  0
 15 16  1  0
 15 17  1  0
 17 18  2  0
  7  2  1  0
 12 18  1  0
  1 19  1  0
  1 20  1  0
  1 21  1  0
  3 22  1  0
  3 23  1  0
  4 24  1  0
  4 25  1  0
  6 26  1  0
  6 27  1  0
  7 28  1  0
  7 29  1  0
 10 30  1  0
 10 31  1  0
 13 32  1  0
 14 33  1  0
 16 34  1  0
 16 35  1  0
 16 36  1  0
 17 37  1  0
 18 38  1  0
M  END
>  <CHROM.1>  (1) 
95.04436869,67.68140932,-135.47307012,-1.53872837,1.03202068,-2.11000975

>  <Name>  (1) 
F488

>  <RI>  (1) 
3.13218e+07

>  <Rbt.Current_Directory>  (1) 
/data/out

>  <Rbt.Executable>  (1) 
rbdock ($Id: //depot/dev/client3/rdock/2013.1/src/exe/rbdock.cxx#4 $)

>  <Rbt.Library>  (1) 
libRbt.so (2013.1, Build901 2013/11/27)

>  <Rbt.Parameter_File>  (1) 
/python_libraries/phenodiscovery/docking/templates/RDOCK_TETHER.conf

>  <Rbt.Receptor>  (1) 
/data/out/rdock-opt/grid/rdock-grid.prm

>  <SCORE>  (1) 
2.44855

>  <SCORE.INTER>  (1) 
-3.52652

>  <SCORE.INTER.CONST>  (1) 
1

>  <SCORE.INTER.POLAR>  (1) 
0

>  <SCORE.INTER.REPUL>  (1) 
0

>  <SCORE.INTER.ROT>  (1) 
3

>  <SCORE.INTER.VDW>  (1) 
-11.9265

>  <SCORE.INTER.norm>  (1) 
-0.195918

>  <SCORE.INTRA>  (1) 
5.97507

>  <SCORE.INTRA.DIHEDRAL>  (1) 
2.60718

>  <SCORE.INTRA.DIHEDRAL.0>  (1) 
1.36238

>  <SCORE.INTRA.POLAR>  (1) 
0

>  <SCORE.INTRA.POLAR.0>  (1) 
0

>  <SCORE.INTRA.REPUL>  (1) 
0

>  <SCORE.INTRA.REPUL.0>  (1) 
0

>  <SCORE.INTRA.VDW>  (1) 
4.67148

>  <SCORE.INTRA.VDW.0>  (1) 
-0.187268

>  <SCORE.INTRA.norm>  (1) 
0.331949

>  <SCORE.RESTR>  (1) 
0

>  <SCORE.RESTR.CAVITY>  (1) 
0

>  <SCORE.RESTR.norm>  (1) 
0

>  <SCORE.SYSTEM>  (1) 
0

>  <SCORE.SYSTEM.CONST>  (1) 
0

>  <SCORE.SYSTEM.DIHEDRAL>  (1) 
0

>  <SCORE.SYSTEM.norm>  (1) 
0

>  <SCORE.heavy>  (1) 
18

>  <SCORE.norm>  (1) 
0.136031

>  <TETHERED ATOMS>  (1) 
12,13,14,15,17,18,8,10,11,9

>  <skeledock_score>  (1) 
56

$$$$
