F421
     RDKit          3D

 19 19  0  0  0  0  0  0  0  0999 V2000
  -19.7030   14.8862   25.2680 C   0  0  0  0  0  0  0  0  0  0  0  0
  -20.3012   14.5578   26.5623 N   0  0  0  0  0  0  0  0  0  0  0  0
  -21.0404   13.3036   26.7120 C   0  0  0  0  0  0  0  0  0  0  0  0
  -20.3398   15.5427   27.6087 C   0  0  0  0  0  0  0  0  0  0  0  0
  -20.6314   16.7363   27.3267 O   0  0  0  0  0  0  0  0  0  0  0  0
  -20.0503   15.1896   29.0095 C   0  0  0  0  0  0  0  0  0  0  0  0
  -19.0421   14.3610   29.4662 C   0  0  0  0  0  0  0  0  0  0  0  0
  -19.1477   14.2323   30.8031 N   0  0  0  0  0  0  0  0  0  0  0  0
  -20.1921   14.9439   31.1971 N   0  0  0  0  0  0  0  0  0  0  0  0
  -20.7680   15.5350   30.1355 C   0  0  0  0  0  0  0  0  0  0  0  0
  -20.4927   14.9257   24.4882 H   0  0  0  0  0  0  0  0  0  0  0  0
  -18.9575   14.1100   24.9953 H   0  0  0  0  0  0  0  0  0  0  0  0
  -19.1845   15.8684   25.3021 H   0  0  0  0  0  0  0  0  0  0  0  0
  -20.5650   12.6652   27.4827 H   0  0  0  0  0  0  0  0  0  0  0  0
  -22.0885   13.5180   27.0101 H   0  0  0  0  0  0  0  0  0  0  0  0
  -21.0574   12.7358   25.7568 H   0  0  0  0  0  0  0  0  0  0  0  0
  -18.2839   13.8770   28.8650 H   0  0  0  0  0  0  0  0  0  0  0  0
  -20.5144   15.0140   32.1874 H   0  0  0  0  0  0  0  0  0  0  0  0
  -21.6620   16.1426   30.1809 H   0  0  0  0  0  0  0  0  0  0  0  0
  1  2  1  0
  2  3  1  0
  2  4  1  0
  4  5  2  0
  4  6  1  0
  6  7  1  0
  7  8  2  0
  8  9  1  0
  9 10  1  0
  6 10  2  0
  1 11  1  0
  1 12  1  0
  1 13  1  0
  3 14  1  0
  3 15  1  0
  3 16  1  0
  7 17  1  0
  9 18  1  0
 10 19  1  0
M  END
>  <CHROM.1>  (1) 
42.33354560,-1.93863121,-1.00034766,1.13165182

>  <Name>  (1) 
F421

>  <RI>  (1) 
3.35376e+07

>  <Rbt.Current_Directory>  (1) 
/data/out

>  <Rbt.Executable>  (1) 
rbdock ($Id: //depot/dev/client3/rdock/2013.1/src/exe/rbdock.cxx#4 $)

>  <Rbt.Library>  (1) 
libRbt.so (2013.1, Build901 2013/11/27)

>  <Rbt.Parameter_File>  (1) 
/python_libraries/phenodiscovery/docking/templates/RDOCK_TETHER.conf

>  <Rbt.Receptor>  (1) 
/data/out/rdock-opt/grid/rdock-grid.prm

>  <SCORE>  (1) 
2.97663

>  <SCORE.INTER>  (1) 
1.61581

>  <SCORE.INTER.CONST>  (1) 
1

>  <SCORE.INTER.POLAR>  (1) 
0

>  <SCORE.INTER.REPUL>  (1) 
0

>  <SCORE.INTER.ROT>  (1) 
1

>  <SCORE.INTER.VDW>  (1) 
-4.78419

>  <SCORE.INTER.norm>  (1) 
0.161581

>  <SCORE.INTRA>  (1) 
1.36082

>  <SCORE.INTRA.DIHEDRAL>  (1) 
3.87571

>  <SCORE.INTRA.DIHEDRAL.0>  (1) 
1.73304

>  <SCORE.INTRA.POLAR>  (1) 
0

>  <SCORE.INTRA.POLAR.0>  (1) 
0

>  <SCORE.INTRA.REPUL>  (1) 
0

>  <SCORE.INTRA.REPUL.0>  (1) 
0

>  <SCORE.INTRA.VDW>  (1) 
-0.577034

>  <SCORE.INTRA.VDW.0>  (1) 
-0.716159

>  <SCORE.INTRA.norm>  (1) 
0.136082

>  <SCORE.RESTR>  (1) 
0

>  <SCORE.RESTR.CAVITY>  (1) 
0

>  <SCORE.RESTR.norm>  (1) 
0

>  <SCORE.SYSTEM>  (1) 
0

>  <SCORE.SYSTEM.CONST>  (1) 
0

>  <SCORE.SYSTEM.DIHEDRAL>  (1) 
0

>  <SCORE.SYSTEM.norm>  (1) 
0

>  <SCORE.heavy>  (1) 
10

>  <SCORE.norm>  (1) 
0.297663

>  <TETHERED ATOMS>  (1) 
2,4,6,10,3,9,8,7

>  <skeledock_score>  (1) 
41

$$$$
