F710
     RDKit          3D

 30 31  0  0  0  0  0  0  0  0999 V2000
  -18.6425   11.5265   23.2767 N   0  0  0  0  0  0  0  0  0  0  0  0
  -18.1536   12.7817   23.7531 C   0  0  0  0  0  0  0  0  0  0  0  0
  -17.3362   13.4307   23.0459 O   0  0  0  0  0  0  0  0  0  0  0  0
  -18.6040   13.3203   25.0100 N   0  0  0  0  0  0  0  0  0  0  0  0
  -18.7216   12.4513   26.1882 C   0  0  0  0  0  0  0  0  0  0  0  0
  -19.9207   12.8836   27.0274 C   0  0  0  0  0  0  0  0  0  0  0  0
  -19.8427   14.3250   27.2822 N   0  0  0  0  0  0  0  0  0  0  0  0
  -19.7359   15.2128   26.1192 C   0  0  0  0  0  0  0  0  0  0  0  0
  -18.5643   14.7731   25.2339 C   0  0  0  0  0  0  0  0  0  0  0  0
  -19.9016   14.8521   28.6219 C   0  0  0  0  0  0  0  0  0  0  0  0
  -19.0903   14.3127   29.6353 C   0  0  0  0  0  0  0  0  0  0  0  0
  -19.1514   14.8225   30.9360 C   0  0  0  0  0  0  0  0  0  0  0  0
  -20.0218   15.8737   31.2366 C   0  0  0  0  0  0  0  0  0  0  0  0
  -20.0796   16.3667   32.4983 F   0  0  0  0  0  0  0  0  0  0  0  0
  -20.8333   16.4157   30.2363 C   0  0  0  0  0  0  0  0  0  0  0  0
  -20.7761   15.9079   28.9349 C   0  0  0  0  0  0  0  0  0  0  0  0
  -18.2683   11.1219   22.3898 H   0  0  0  0  0  0  0  0  0  0  0  0
  -19.4370   11.0415   23.7482 H   0  0  0  0  0  0  0  0  0  0  0  0
  -18.8439   11.3857   25.9054 H   0  0  0  0  0  0  0  0  0  0  0  0
  -17.7954   12.5354   26.7973 H   0  0  0  0  0  0  0  0  0  0  0  0
  -20.8553   12.6647   26.4667 H   0  0  0  0  0  0  0  0  0  0  0  0
  -19.9525   12.3000   27.9722 H   0  0  0  0  0  0  0  0  0  0  0  0
  -20.6814   15.1663   25.5365 H   0  0  0  0  0  0  0  0  0  0  0  0
  -19.5700   16.2665   26.4327 H   0  0  0  0  0  0  0  0  0  0  0  0
  -17.6047   15.0401   25.7279 H   0  0  0  0  0  0  0  0  0  0  0  0
  -18.6265   15.3226   24.2691 H   0  0  0  0  0  0  0  0  0  0  0  0
  -18.4014   13.5071   29.4150 H   0  0  0  0  0  0  0  0  0  0  0  0
  -18.5209   14.4034   31.7097 H   0  0  0  0  0  0  0  0  0  0  0  0
  -21.5115   17.2265   30.4695 H   0  0  0  0  0  0  0  0  0  0  0  0
  -21.4262   16.3252   28.1767 H   0  0  0  0  0  0  0  0  0  0  0  0
  1  2  1  0
  2  3  2  0
  2  4  1  0
  4  5  1  0
  5  6  1  0
  6  7  1  0
  7  8  1  0
  8  9  1  0
  7 10  1  0
 10 11  2  0
 11 12  1  0
 12 13  2  0
 13 14  1  0
 13 15  1  0
 15 16  2  0
  9  4  1  0
 10 16  1  0
  1 17  1  0
  1 18  1  0
  5 19  1  0
  5 20  1  0
  6 21  1  0
  6 22  1  0
  8 23  1  0
  8 24  1  0
  9 25  1  0
  9 26  1  0
 11 27  1  0
 12 28  1  0
 15 29  1  0
 16 30  1  0
M  END
>  <CHROM.1>  (1) 
48.93716426,1.88931264,-0.87262891,1.29644760

>  <Name>  (1) 
F710

>  <RI>  (1) 
1.9469e+07

>  <Rbt.Current_Directory>  (1) 
/data/out

>  <Rbt.Executable>  (1) 
rbdock ($Id: //depot/dev/client3/rdock/2013.1/src/exe/rbdock.cxx#4 $)

>  <Rbt.Library>  (1) 
libRbt.so (2013.1, Build901 2013/11/27)

>  <Rbt.Parameter_File>  (1) 
/python_libraries/phenodiscovery/docking/templates/RDOCK_TETHER.conf

>  <Rbt.Receptor>  (1) 
/data/out/rdock-opt/grid/rdock-grid.prm

>  <SCORE>  (1) 
-3.12845

>  <SCORE.INTER>  (1) 
-3.11316

>  <SCORE.INTER.CONST>  (1) 
1

>  <SCORE.INTER.POLAR>  (1) 
0

>  <SCORE.INTER.REPUL>  (1) 
0

>  <SCORE.INTER.ROT>  (1) 
1

>  <SCORE.INTER.VDW>  (1) 
-9.51316

>  <SCORE.INTER.norm>  (1) 
-0.194572

>  <SCORE.INTRA>  (1) 
-0.0152944

>  <SCORE.INTRA.DIHEDRAL>  (1) 
0.507613

>  <SCORE.INTRA.DIHEDRAL.0>  (1) 
6.63475

>  <SCORE.INTRA.POLAR>  (1) 
0

>  <SCORE.INTRA.POLAR.0>  (1) 
0

>  <SCORE.INTRA.REPUL>  (1) 
0

>  <SCORE.INTRA.REPUL.0>  (1) 
0

>  <SCORE.INTRA.VDW>  (1) 
-0.269101

>  <SCORE.INTRA.VDW.0>  (1) 
-0.666848

>  <SCORE.INTRA.norm>  (1) 
-0.000955901

>  <SCORE.RESTR>  (1) 
0

>  <SCORE.RESTR.CAVITY>  (1) 
0

>  <SCORE.RESTR.norm>  (1) 
0

>  <SCORE.SYSTEM>  (1) 
0

>  <SCORE.SYSTEM.CONST>  (1) 
0

>  <SCORE.SYSTEM.DIHEDRAL>  (1) 
0

>  <SCORE.SYSTEM.norm>  (1) 
0

>  <SCORE.heavy>  (1) 
16

>  <SCORE.norm>  (1) 
-0.195528

>  <TETHERED ATOMS>  (1) 
10,11,12,13,15,16,4,5,6,7

>  <skeledock_score>  (1) 
32

$$$$
