F600
     RDKit          3D

 16 16  0  0  0  0  0  0  0  0999 V2000
  -18.3852   13.4386   27.5463 C   0  0  0  0  0  0  0  0  0  0  0  0
  -19.2148   14.3079   26.8090 O   0  0  0  0  0  0  0  0  0  0  0  0
  -19.9929   15.0783   27.6990 C   0  0  0  0  0  0  0  0  0  0  0  0
  -20.9969   14.1925   28.3579 C   0  0  0  0  0  0  0  0  0  0  0  0
  -21.3840   14.3235   29.6471 N   0  0  0  0  0  0  0  0  0  0  0  0
  -22.2969   13.4268   30.0166 N   0  0  0  0  0  0  0  0  0  0  0  0
  -22.6368   12.5835   29.0192 C   0  0  0  0  0  0  0  0  0  0  0  0
  -23.5935   11.5385   29.1690 N   0  0  0  0  0  0  0  0  0  0  0  0
  -21.8012   12.9188   27.5972 S   0  0  0  0  0  0  0  0  0  0  0  0
  -18.9857   12.7356   28.1655 H   0  0  0  0  0  0  0  0  0  0  0  0
  -17.6722   14.0073   28.1841 H   0  0  0  0  0  0  0  0  0  0  0  0
  -17.7878   12.8322   26.8349 H   0  0  0  0  0  0  0  0  0  0  0  0
  -19.3506   15.5392   28.4838 H   0  0  0  0  0  0  0  0  0  0  0  0
  -20.5459   15.8790   27.1577 H   0  0  0  0  0  0  0  0  0  0  0  0
  -24.0731   11.3911   30.0844 H   0  0  0  0  0  0  0  0  0  0  0  0
  -23.8213   10.9132   28.3648 H   0  0  0  0  0  0  0  0  0  0  0  0
  1  2  1  0
  2  3  1  0
  3  4  1  0
  4  5  2  0
  5  6  1  0
  6  7  2  0
  7  8  1  0
  7  9  1  0
  9  4  1  0
  1 10  1  0
  1 11  1  0
  1 12  1  0
  3 13  1  0
  3 14  1  0
  8 15  1  0
  8 16  1  0
M  END
>  <CHROM.1>  (1) 
-69.75079647,143.40928858,-0.46140716,-0.58141380,2.24072532

>  <Name>  (1) 
F600

>  <RI>  (1) 
2.16348e+07

>  <Rbt.Current_Directory>  (1) 
/data/out

>  <Rbt.Executable>  (1) 
rbdock ($Id: //depot/dev/client3/rdock/2013.1/src/exe/rbdock.cxx#4 $)

>  <Rbt.Library>  (1) 
libRbt.so (2013.1, Build901 2013/11/27)

>  <Rbt.Parameter_File>  (1) 
/python_libraries/phenodiscovery/docking/templates/RDOCK_TETHER.conf

>  <Rbt.Receptor>  (1) 
/data/out/rdock-opt/grid/rdock-grid.prm

>  <SCORE>  (1) 
-3.45033

>  <SCORE.INTER>  (1) 
-4.29255

>  <SCORE.INTER.CONST>  (1) 
1

>  <SCORE.INTER.POLAR>  (1) 
-1.04898

>  <SCORE.INTER.REPUL>  (1) 
0

>  <SCORE.INTER.ROT>  (1) 
2

>  <SCORE.INTER.VDW>  (1) 
-8.12603

>  <SCORE.INTER.norm>  (1) 
-0.47695

>  <SCORE.INTRA>  (1) 
0.842226

>  <SCORE.INTRA.DIHEDRAL>  (1) 
0.404299

>  <SCORE.INTRA.DIHEDRAL.0>  (1) 
1.35435

>  <SCORE.INTRA.POLAR>  (1) 
0

>  <SCORE.INTRA.POLAR.0>  (1) 
0

>  <SCORE.INTRA.REPUL>  (1) 
0

>  <SCORE.INTRA.REPUL.0>  (1) 
0

>  <SCORE.INTRA.VDW>  (1) 
0.640076

>  <SCORE.INTRA.VDW.0>  (1) 
0.523102

>  <SCORE.INTRA.norm>  (1) 
0.0935806

>  <SCORE.RESTR>  (1) 
0

>  <SCORE.RESTR.CAVITY>  (1) 
0

>  <SCORE.RESTR.norm>  (1) 
0

>  <SCORE.SYSTEM>  (1) 
0

>  <SCORE.SYSTEM.CONST>  (1) 
0

>  <SCORE.SYSTEM.DIHEDRAL>  (1) 
0

>  <SCORE.SYSTEM.norm>  (1) 
0

>  <SCORE.heavy>  (1) 
9

>  <SCORE.norm>  (1) 
-0.38337

>  <TETHERED ATOMS>  (1) 
1,2,3,4,5

>  <skeledock_score>  (1) 
15

$$$$
