F618
     RDKit          3D

 26 26  0  0  0  0  0  0  0  0999 V2000
  -18.0577   15.8847   26.7878 C   0  0  0  0  0  0  0  0  0  0  0  0
  -19.3384   15.2298   26.2525 C   0  0  0  0  0  0  0  0  0  0  0  0
  -19.0264   14.1610   25.1929 C   0  0  0  0  0  0  0  0  0  0  0  0
  -18.0728   13.2510   25.6700 O   0  0  0  0  0  0  0  0  0  0  0  0
  -20.1396   14.6569   27.3503 N   0  0  0  0  0  0  0  0  0  0  0  0
  -21.5804   14.9055   27.3864 C   0  0  0  0  0  0  0  0  0  0  0  0
  -19.5166   14.1104   28.5234 C   0  0  0  0  0  0  0  0  0  0  0  0
  -18.5441   13.1665   28.3874 N   0  0  0  0  0  0  0  0  0  0  0  0
  -17.8917   12.6472   29.4615 C   0  0  0  0  0  0  0  0  0  0  0  0
  -18.2055   13.0860   30.7492 C   0  0  0  0  0  0  0  0  0  0  0  0
  -19.1889   14.0623   30.9166 C   0  0  0  0  0  0  0  0  0  0  0  0
  -19.8475   14.5856   29.8016 C   0  0  0  0  0  0  0  0  0  0  0  0
  -20.7709   15.5653   29.9648 F   0  0  0  0  0  0  0  0  0  0  0  0
  -17.5258   16.4132   25.9683 H   0  0  0  0  0  0  0  0  0  0  0  0
  -17.3744   15.1240   27.2221 H   0  0  0  0  0  0  0  0  0  0  0  0
  -18.3145   16.6274   27.5727 H   0  0  0  0  0  0  0  0  0  0  0  0
  -19.9283   16.0314   25.7523 H   0  0  0  0  0  0  0  0  0  0  0  0
  -18.6503   14.6484   24.2644 H   0  0  0  0  0  0  0  0  0  0  0  0
  -19.9496   13.6012   24.9330 H   0  0  0  0  0  0  0  0  0  0  0  0
  -18.3968   12.9344   26.5535 H   0  0  0  0  0  0  0  0  0  0  0  0
  -22.0740   14.2549   28.1404 H   0  0  0  0  0  0  0  0  0  0  0  0
  -21.7690   15.9685   27.6461 H   0  0  0  0  0  0  0  0  0  0  0  0
  -22.0288   14.6835   26.3949 H   0  0  0  0  0  0  0  0  0  0  0  0
  -17.1276   11.8956   29.3150 H   0  0  0  0  0  0  0  0  0  0  0  0
  -17.6881   12.6776   31.6076 H   0  0  0  0  0  0  0  0  0  0  0  0
  -19.4326   14.4195   31.9088 H   0  0  0  0  0  0  0  0  0  0  0  0
  1  2  1  0
  2  3  1  0
  3  4  1  0
  2  5  1  0
  5  6  1  0
  5  7  1  0
  7  8  2  0
  8  9  1  0
  9 10  2  0
 10 11  1  0
 11 12  2  0
 12 13  1  0
  7 12  1  0
  1 14  1  0
  1 15  1  0
  1 16  1  0
  2 17  1  0
  3 18  1  0
  3 19  1  0
  4 20  1  0
  6 21  1  0
  6 22  1  0
  6 23  1  0
  9 24  1  0
 10 25  1  0
 11 26  1  0
M  END
>  <CHROM.1>  (1) 
51.61195642,51.27517417,133.96920879,-52.87870382,1.75196481,-0.77886212
1.66447413

>  <Name>  (1) 
F618

>  <RI>  (1) 
2.85652e+07

>  <Rbt.Current_Directory>  (1) 
/data/out

>  <Rbt.Executable>  (1) 
rbdock ($Id: //depot/dev/client3/rdock/2013.1/src/exe/rbdock.cxx#4 $)

>  <Rbt.Library>  (1) 
libRbt.so (2013.1, Build901 2013/11/27)

>  <Rbt.Parameter_File>  (1) 
/python_libraries/phenodiscovery/docking/templates/RDOCK_TETHER.conf

>  <Rbt.Receptor>  (1) 
/data/out/rdock-opt/grid/rdock-grid.prm

>  <SCORE>  (1) 
-6.90222

>  <SCORE.INTER>  (1) 
-1.06695

>  <SCORE.INTER.CONST>  (1) 
1

>  <SCORE.INTER.POLAR>  (1) 
0

>  <SCORE.INTER.REPUL>  (1) 
0

>  <SCORE.INTER.ROT>  (1) 
3

>  <SCORE.INTER.VDW>  (1) 
-9.46695

>  <SCORE.INTER.norm>  (1) 
-0.0820733

>  <SCORE.INTRA>  (1) 
-5.83527

>  <SCORE.INTRA.DIHEDRAL>  (1) 
-6.42481

>  <SCORE.INTRA.DIHEDRAL.0>  (1) 
15.91

>  <SCORE.INTRA.POLAR>  (1) 
-1

>  <SCORE.INTRA.POLAR.0>  (1) 
0

>  <SCORE.INTRA.REPUL>  (1) 
0

>  <SCORE.INTRA.REPUL.0>  (1) 
0

>  <SCORE.INTRA.VDW>  (1) 
0.777134

>  <SCORE.INTRA.VDW.0>  (1) 
-2.67927

>  <SCORE.INTRA.norm>  (1) 
-0.448867

>  <SCORE.RESTR>  (1) 
0

>  <SCORE.RESTR.CAVITY>  (1) 
0

>  <SCORE.RESTR.norm>  (1) 
0

>  <SCORE.SYSTEM>  (1) 
0

>  <SCORE.SYSTEM.CONST>  (1) 
0

>  <SCORE.SYSTEM.DIHEDRAL>  (1) 
0

>  <SCORE.SYSTEM.norm>  (1) 
0

>  <SCORE.heavy>  (1) 
13

>  <SCORE.norm>  (1) 
-0.53094

>  <TETHERED ATOMS>  (1) 
7,12,11,10,9,2,5,3,4,13

>  <skeledock_score>  (1) 
53

$$$$
