F393
     RDKit          3D

 24 24  0  0  0  0  0  0  0  0999 V2000
  -23.4981   14.0406   28.2788 C   0  0  0  0  0  0  0  0  0  0  0  0
  -22.5106   14.8076   29.1539 C   0  0  0  0  0  0  0  0  0  0  0  0
  -21.1736   14.6320   28.6878 O   0  0  0  0  0  0  0  0  0  0  0  0
  -20.7047   15.1548   27.4760 C   0  0  0  0  0  0  0  0  0  0  0  0
  -21.2846   16.1451   26.9499 O   0  0  0  0  0  0  0  0  0  0  0  0
  -19.5639   14.5617   26.8287 N   0  0  0  0  0  0  0  0  0  0  0  0
  -19.1153   15.0761   25.5297 C   0  0  0  0  0  0  0  0  0  0  0  0
  -18.3311   13.9998   24.7757 C   0  0  0  0  0  0  0  0  0  0  0  0
  -17.3084   13.4631   25.5909 O   0  0  0  0  0  0  0  0  0  0  0  0
  -17.8872   12.7630   26.6743 C   0  0  0  0  0  0  0  0  0  0  0  0
  -18.6456   13.7178   27.6025 C   0  0  0  0  0  0  0  0  0  0  0  0
  -23.2142   12.9678   28.2388 H   0  0  0  0  0  0  0  0  0  0  0  0
  -23.5120   14.4524   27.2486 H   0  0  0  0  0  0  0  0  0  0  0  0
  -24.5190   14.1260   28.7071 H   0  0  0  0  0  0  0  0  0  0  0  0
  -22.7718   15.8879   29.1764 H   0  0  0  0  0  0  0  0  0  0  0  0
  -22.5765   14.4151   30.1905 H   0  0  0  0  0  0  0  0  0  0  0  0
  -19.9846   15.3783   24.9059 H   0  0  0  0  0  0  0  0  0  0  0  0
  -18.4670   15.9641   25.6927 H   0  0  0  0  0  0  0  0  0  0  0  0
  -19.0170   13.2020   24.4084 H   0  0  0  0  0  0  0  0  0  0  0  0
  -17.8635   14.4618   23.8808 H   0  0  0  0  0  0  0  0  0  0  0  0
  -18.5614   11.9514   26.3157 H   0  0  0  0  0  0  0  0  0  0  0  0
  -17.0750   12.2750   27.2534 H   0  0  0  0  0  0  0  0  0  0  0  0
  -17.9211   14.3671   28.1397 H   0  0  0  0  0  0  0  0  0  0  0  0
  -19.2013   13.1121   28.3504 H   0  0  0  0  0  0  0  0  0  0  0  0
  1  2  1  0
  2  3  1  0
  3  4  1  0
  4  5  2  0
  4  6  1  0
  6  7  1  0
  7  8  1  0
  8  9  1  0
  9 10  1  0
 10 11  1  0
 11  6  1  0
  1 12  1  0
  1 13  1  0
  1 14  1  0
  2 15  1  0
  2 16  1  0
  7 17  1  0
  7 18  1  0
  8 19  1  0
  8 20  1  0
 10 21  1  0
 10 22  1  0
 11 23  1  0
 11 24  1  0
M  END
>  <CHROM.1>  (1) 
68.28132192,22.98704846,-0.29765656,-0.38135508,2.20315081

>  <Name>  (1) 
F393

>  <RI>  (1) 
3.00275e+07

>  <Rbt.Current_Directory>  (1) 
/data/out

>  <Rbt.Executable>  (1) 
rbdock ($Id: //depot/dev/client3/rdock/2013.1/src/exe/rbdock.cxx#4 $)

>  <Rbt.Library>  (1) 
libRbt.so (2013.1, Build901 2013/11/27)

>  <Rbt.Parameter_File>  (1) 
/python_libraries/phenodiscovery/docking/templates/RDOCK_TETHER.conf

>  <Rbt.Receptor>  (1) 
/data/out/rdock-opt/grid/rdock-grid.prm

>  <SCORE>  (1) 
1.80748

>  <SCORE.INTER>  (1) 
0.425786

>  <SCORE.INTER.CONST>  (1) 
1

>  <SCORE.INTER.POLAR>  (1) 
-0.0520397

>  <SCORE.INTER.REPUL>  (1) 
0

>  <SCORE.INTER.ROT>  (1) 
2

>  <SCORE.INTER.VDW>  (1) 
-6.79728

>  <SCORE.INTER.norm>  (1) 
0.0387078

>  <SCORE.INTRA>  (1) 
1.3817

>  <SCORE.INTRA.DIHEDRAL>  (1) 
3.17646

>  <SCORE.INTRA.DIHEDRAL.0>  (1) 
0.636882

>  <SCORE.INTRA.POLAR>  (1) 
0

>  <SCORE.INTRA.POLAR.0>  (1) 
0

>  <SCORE.INTRA.REPUL>  (1) 
0

>  <SCORE.INTRA.REPUL.0>  (1) 
0

>  <SCORE.INTRA.VDW>  (1) 
-0.206532

>  <SCORE.INTRA.VDW.0>  (1) 
-0.582216

>  <SCORE.INTRA.norm>  (1) 
0.125609

>  <SCORE.RESTR>  (1) 
0

>  <SCORE.RESTR.CAVITY>  (1) 
0

>  <SCORE.RESTR.norm>  (1) 
0

>  <SCORE.SYSTEM>  (1) 
0

>  <SCORE.SYSTEM.CONST>  (1) 
0

>  <SCORE.SYSTEM.DIHEDRAL>  (1) 
0

>  <SCORE.SYSTEM.norm>  (1) 
0

>  <SCORE.heavy>  (1) 
11

>  <SCORE.norm>  (1) 
0.164317

>  <TETHERED ATOMS>  (1) 
10,11,4,8,7,1

>  <skeledock_score>  (1) 
25

$$$$
