F741
     RDKit          3D

 25 27  0  0  0  0  0  0  0  0999 V2000
  -16.8472   17.9429   26.1201 O   0  0  0  0  0  0  0  0  0  0  0  0
  -18.0223   17.5541   26.3613 C   0  0  0  0  0  0  0  0  0  0  0  0
  -19.0439   18.5175   26.6526 N   0  0  0  0  0  0  0  0  0  0  0  0
  -18.7831   19.9506   26.5579 C   0  0  0  0  0  0  0  0  0  0  0  0
  -19.8390   20.7980   27.2472 C   0  0  0  0  0  0  0  0  0  0  0  0
  -18.4747   20.6087   27.8916 C   0  0  0  0  0  0  0  0  0  0  0  0
  -18.3130   16.1077   26.3483 C   0  0  0  0  0  0  0  0  0  0  0  0
  -17.4875   15.0947   25.8598 C   0  0  0  0  0  0  0  0  0  0  0  0
  -18.0977   13.8909   25.9875 N   0  0  0  0  0  0  0  0  0  0  0  0
  -19.2783   14.1205   26.5355 N   0  0  0  0  0  0  0  0  0  0  0  0
  -20.2350   13.2057   26.8242 C   0  0  0  0  0  0  0  0  0  0  0  0
  -21.4371   13.6671   27.3771 C   0  0  0  0  0  0  0  0  0  0  0  0
  -21.5951   15.0494   27.5986 C   0  0  0  0  0  0  0  0  0  0  0  0
  -20.5922   15.9200   27.2831 N   0  0  0  0  0  0  0  0  0  0  0  0
  -19.4405   15.4290   26.7618 C   0  0  0  0  0  0  0  0  0  0  0  0
  -19.9473   18.2097   27.0737 H   0  0  0  0  0  0  0  0  0  0  0  0
  -18.3226   20.3627   25.6351 H   0  0  0  0  0  0  0  0  0  0  0  0
  -20.6571   20.2354   27.7465 H   0  0  0  0  0  0  0  0  0  0  0  0
  -19.9899   21.8005   26.7945 H   0  0  0  0  0  0  0  0  0  0  0  0
  -17.8139   21.4982   27.8210 H   0  0  0  0  0  0  0  0  0  0  0  0
  -18.4829   19.9359   28.7760 H   0  0  0  0  0  0  0  0  0  0  0  0
  -16.5016   15.2281   25.4346 H   0  0  0  0  0  0  0  0  0  0  0  0
  -20.0776   12.1526   26.6285 H   0  0  0  0  0  0  0  0  0  0  0  0
  -22.2314   12.9747   27.6238 H   0  0  0  0  0  0  0  0  0  0  0  0
  -22.5182   15.4256   28.0188 H   0  0  0  0  0  0  0  0  0  0  0  0
  1  2  2  0
  2  3  1  0
  3  4  1  0
  4  5  1  0
  5  6  1  0
  2  7  1  0
  7  8  1  0
  8  9  2  0
  9 10  1  0
 10 11  1  0
 11 12  2  0
 12 13  1  0
 13 14  2  0
 14 15  1  0
  6  4  1  0
  7 15  2  0
 15 10  1  0
  3 16  1  0
  4 17  1  0
  5 18  1  0
  5 19  1  0
  6 20  1  0
  6 21  1  0
  8 22  1  0
 11 23  1  0
 12 24  1  0
 13 25  1  0
M  END
>  <CHROM.1>  (1) 
-164.61628544,-12.58720501,0.75369507,0.41071918,0.12454847

>  <Name>  (1) 
F741

>  <RI>  (1) 
2.20389e+07

>  <Rbt.Current_Directory>  (1) 
/data/out

>  <Rbt.Executable>  (1) 
rbdock ($Id: //depot/dev/client3/rdock/2013.1/src/exe/rbdock.cxx#4 $)

>  <Rbt.Library>  (1) 
libRbt.so (2013.1, Build901 2013/11/27)

>  <Rbt.Parameter_File>  (1) 
/python_libraries/phenodiscovery/docking/templates/RDOCK_TETHER.conf

>  <Rbt.Receptor>  (1) 
/data/out/rdock-opt/grid/rdock-grid.prm

>  <SCORE>  (1) 
-4.24634

>  <SCORE.INTER>  (1) 
-3.86013

>  <SCORE.INTER.CONST>  (1) 
1

>  <SCORE.INTER.POLAR>  (1) 
-0.044318

>  <SCORE.INTER.REPUL>  (1) 
0.00267786

>  <SCORE.INTER.ROT>  (1) 
2

>  <SCORE.INTER.VDW>  (1) 
-11.1228

>  <SCORE.INTER.norm>  (1) 
-0.257342

>  <SCORE.INTRA>  (1) 
-0.386216

>  <SCORE.INTRA.DIHEDRAL>  (1) 
-0.131545

>  <SCORE.INTRA.DIHEDRAL.0>  (1) 
1.6886

>  <SCORE.INTRA.POLAR>  (1) 
-0.185763

>  <SCORE.INTRA.POLAR.0>  (1) 
-0.0319853

>  <SCORE.INTRA.REPUL>  (1) 
0

>  <SCORE.INTRA.REPUL.0>  (1) 
0

>  <SCORE.INTRA.VDW>  (1) 
0.311152

>  <SCORE.INTRA.VDW.0>  (1) 
-1.79185

>  <SCORE.INTRA.norm>  (1) 
-0.0257477

>  <SCORE.RESTR>  (1) 
0

>  <SCORE.RESTR.CAVITY>  (1) 
0

>  <SCORE.RESTR.norm>  (1) 
0

>  <SCORE.SYSTEM>  (1) 
0

>  <SCORE.SYSTEM.CONST>  (1) 
0

>  <SCORE.SYSTEM.DIHEDRAL>  (1) 
0

>  <SCORE.SYSTEM.norm>  (1) 
0

>  <SCORE.heavy>  (1) 
15

>  <SCORE.norm>  (1) 
-0.28309

>  <TETHERED ATOMS>  (1) 
15,7,10,8,11

>  <skeledock_score>  (1) 
20

$$$$
