F558
     RDKit          3D

 32 33  0  0  0  0  0  0  0  0999 V2000
  -20.3409   15.1208   35.6351 C   0  0  0  0  0  0  0  0  0  0  0  0
  -20.6180   16.3388   34.9543 O   0  0  0  0  0  0  0  0  0  0  0  0
  -20.4951   16.4724   33.5685 C   0  0  0  0  0  0  0  0  0  0  0  0
  -20.7534   17.5744   33.0105 O   0  0  0  0  0  0  0  0  0  0  0  0
  -20.0303   15.3553   32.7990 N   0  0  0  0  0  0  0  0  0  0  0  0
  -20.0301   15.3038   31.3617 C   0  0  0  0  0  0  0  0  0  0  0  0
  -21.0369   15.9268   30.6037 C   0  0  0  0  0  0  0  0  0  0  0  0
  -21.0284   15.8395   29.2085 C   0  0  0  0  0  0  0  0  0  0  0  0
  -20.0249   15.1152   28.5462 C   0  0  0  0  0  0  0  0  0  0  0  0
  -19.9735   15.1039   27.0368 C   0  0  0  0  0  0  0  0  0  0  0  0
  -19.6783   13.7323   26.4853 C   0  0  0  0  0  0  0  0  0  0  0  0
  -20.7029   12.7843   26.3396 C   0  0  0  0  0  0  0  0  0  0  0  0
  -20.4037   11.5215   25.8227 C   0  0  0  0  0  0  0  0  0  0  0  0
  -19.1282   11.2149   25.4662 N   0  0  0  0  0  0  0  0  0  0  0  0
  -18.1165   12.1131   25.5991 C   0  0  0  0  0  0  0  0  0  0  0  0
  -18.3723   13.3868   26.1117 C   0  0  0  0  0  0  0  0  0  0  0  0
  -19.0208   14.4900   29.3061 C   0  0  0  0  0  0  0  0  0  0  0  0
  -19.0365   14.5683   30.7012 C   0  0  0  0  0  0  0  0  0  0  0  0
  -19.2833   14.8250   35.4697 H   0  0  0  0  0  0  0  0  0  0  0  0
  -21.0166   14.3186   35.2697 H   0  0  0  0  0  0  0  0  0  0  0  0
  -20.5084   15.2644   36.7222 H   0  0  0  0  0  0  0  0  0  0  0  0
  -19.5861   14.5674   33.3222 H   0  0  0  0  0  0  0  0  0  0  0  0
  -21.8446   16.4600   31.0865 H   0  0  0  0  0  0  0  0  0  0  0  0
  -21.8068   16.3395   28.6455 H   0  0  0  0  0  0  0  0  0  0  0  0
  -20.9366   15.4541   26.6053 H   0  0  0  0  0  0  0  0  0  0  0  0
  -19.1957   15.8302   26.7153 H   0  0  0  0  0  0  0  0  0  0  0  0
  -21.7226   13.0203   26.6175 H   0  0  0  0  0  0  0  0  0  0  0  0
  -21.1868   10.7845   25.7044 H   0  0  0  0  0  0  0  0  0  0  0  0
  -17.1119   11.8383   25.3062 H   0  0  0  0  0  0  0  0  0  0  0  0
  -17.5624   14.0985   26.2145 H   0  0  0  0  0  0  0  0  0  0  0  0
  -18.2206   13.9470   28.8191 H   0  0  0  0  0  0  0  0  0  0  0  0
  -18.2588   14.0729   31.2690 H   0  0  0  0  0  0  0  0  0  0  0  0
  1  2  1  0
  2  3  1  0
  3  4  2  0
  3  5  1  0
  5  6  1  0
  6  7  2  0
  7  8  1  0
  8  9  2  0
  9 10  1  0
 10 11  1  0
 11 12  2  0
 12 13  1  0
 13 14  2  0
 14 15  1  0
 15 16  2  0
  9 17  1  0
 17 18  2  0
  6 18  1  0
 11 16  1  0
  1 19  1  0
  1 20  1  0
  1 21  1  0
  5 22  1  0
  7 23  1  0
  8 24  1  0
 10 25  1  0
 10 26  1  0
 12 27  1  0
 13 28  1  0
 15 29  1  0
 16 30  1  0
 17 31  1  0
 18 32  1  0
M  END
>  <CHROM.1>  (1) 
179.96211859,-34.05651667,-137.68021415,82.11386235,-1.99068954,0.73592988
-1.76047051

>  <Name>  (1) 
F558

>  <RI>  (1) 
1.20091e+07

>  <Rbt.Current_Directory>  (1) 
/data/out

>  <Rbt.Executable>  (1) 
rbdock ($Id: //depot/dev/client3/rdock/2013.1/src/exe/rbdock.cxx#4 $)

>  <Rbt.Library>  (1) 
libRbt.so (2013.1, Build901 2013/11/27)

>  <Rbt.Parameter_File>  (1) 
/python_libraries/phenodiscovery/docking/templates/RDOCK_TETHER.conf

>  <Rbt.Receptor>  (1) 
/data/out/rdock-opt/grid/rdock-grid.prm

>  <SCORE>  (1) 
-0.372088

>  <SCORE.INTER>  (1) 
-0.654971

>  <SCORE.INTER.CONST>  (1) 
1

>  <SCORE.INTER.POLAR>  (1) 
0

>  <SCORE.INTER.REPUL>  (1) 
0.0304478

>  <SCORE.INTER.ROT>  (1) 
4

>  <SCORE.INTER.VDW>  (1) 
-10.2072

>  <SCORE.INTER.norm>  (1) 
-0.0363873

>  <SCORE.INTRA>  (1) 
0.280434

>  <SCORE.INTRA.DIHEDRAL>  (1) 
-0.275633

>  <SCORE.INTRA.DIHEDRAL.0>  (1) 
4.97793

>  <SCORE.INTRA.POLAR>  (1) 
0

>  <SCORE.INTRA.POLAR.0>  (1) 
0

>  <SCORE.INTRA.REPUL>  (1) 
0

>  <SCORE.INTRA.REPUL.0>  (1) 
0

>  <SCORE.INTRA.VDW>  (1) 
0.418251

>  <SCORE.INTRA.VDW.0>  (1) 
-1.13588

>  <SCORE.INTRA.norm>  (1) 
0.0155797

>  <SCORE.RESTR>  (1) 
0.00244828

>  <SCORE.RESTR.CAVITY>  (1) 
0.00244828

>  <SCORE.RESTR.norm>  (1) 
0.000136016

>  <SCORE.SYSTEM>  (1) 
0

>  <SCORE.SYSTEM.CONST>  (1) 
0

>  <SCORE.SYSTEM.DIHEDRAL>  (1) 
0

>  <SCORE.SYSTEM.norm>  (1) 
0

>  <SCORE.heavy>  (1) 
18

>  <SCORE.norm>  (1) 
-0.0206716

>  <TETHERED ATOMS>  (1) 
6,7,8,9,10,17,18,11,16,15

>  <skeledock_score>  (1) 
38

$$$$
