F600
     RDKit          3D

 16 16  0  0  0  0  0  0  0  0999 V2000
  -17.7979   14.1858   28.3671 C   0  0  0  0  0  0  0  0  0  0  0  0
  -19.1238   14.5593   28.6681 O   0  0  0  0  0  0  0  0  0  0  0  0
  -20.0079   13.8779   27.8048 C   0  0  0  0  0  0  0  0  0  0  0  0
  -21.4117   14.2419   28.1573 C   0  0  0  0  0  0  0  0  0  0  0  0
  -21.7393   15.0799   29.1670 N   0  0  0  0  0  0  0  0  0  0  0  0
  -23.0518   15.2716   29.2872 N   0  0  0  0  0  0  0  0  0  0  0  0
  -23.7676   14.5878   28.3699 C   0  0  0  0  0  0  0  0  0  0  0  0
  -25.1895   14.6323   28.2940 N   0  0  0  0  0  0  0  0  0  0  0  0
  -22.7823   13.6924   27.3405 S   0  0  0  0  0  0  0  0  0  0  0  0
  -17.1129   14.7415   29.0399 H   0  0  0  0  0  0  0  0  0  0  0  0
  -17.6357   13.0994   28.5454 H   0  0  0  0  0  0  0  0  0  0  0  0
  -17.5304   14.4527   27.3203 H   0  0  0  0  0  0  0  0  0  0  0  0
  -19.8173   14.1620   26.7447 H   0  0  0  0  0  0  0  0  0  0  0  0
  -19.9048   12.7744   27.9150 H   0  0  0  0  0  0  0  0  0  0  0  0
  -25.6957   14.0845   27.5637 H   0  0  0  0  0  0  0  0  0  0  0  0
  -25.7348   15.2130   28.9686 H   0  0  0  0  0  0  0  0  0  0  0  0
  1  2  1  0
  2  3  1  0
  3  4  1  0
  4  5  2  0
  5  6  1  0
  6  7  2  0
  7  8  1  0
  7  9  1  0
  9  4  1  0
  1 10  1  0
  1 11  1  0
  1 12  1  0
  3 13  1  0
  3 14  1  0
  8 15  1  0
  8 16  1  0
M  END
>  <CHROM.1>  (1) 
178.13348378,-0.97140400,-0.17022491,-0.04383287,0.88368644

>  <Name>  (1) 
F600

>  <RI>  (1) 
3.52058e+07

>  <Rbt.Current_Directory>  (1) 
/data/out

>  <Rbt.Executable>  (1) 
rbdock ($Id: //depot/dev/client3/rdock/2013.1/src/exe/rbdock.cxx#4 $)

>  <Rbt.Library>  (1) 
libRbt.so (2013.1, Build901 2013/11/27)

>  <Rbt.Parameter_File>  (1) 
/python_libraries/phenodiscovery/docking/templates/RDOCK_TETHER.conf

>  <Rbt.Receptor>  (1) 
/data/out/rdock-opt/grid/rdock-grid.prm

>  <SCORE>  (1) 
-2.57019

>  <SCORE.INTER>  (1) 
-2.6242

>  <SCORE.INTER.CONST>  (1) 
1

>  <SCORE.INTER.POLAR>  (1) 
-0.489898

>  <SCORE.INTER.REPUL>  (1) 
0

>  <SCORE.INTER.ROT>  (1) 
2

>  <SCORE.INTER.VDW>  (1) 
-8.35855

>  <SCORE.INTER.norm>  (1) 
-0.291578

>  <SCORE.INTRA>  (1) 
0.0540141

>  <SCORE.INTRA.DIHEDRAL>  (1) 
-0.020715

>  <SCORE.INTRA.DIHEDRAL.0>  (1) 
1.37273

>  <SCORE.INTRA.POLAR>  (1) 
0

>  <SCORE.INTRA.POLAR.0>  (1) 
0

>  <SCORE.INTRA.REPUL>  (1) 
0

>  <SCORE.INTRA.REPUL.0>  (1) 
0

>  <SCORE.INTRA.VDW>  (1) 
0.0643716

>  <SCORE.INTRA.VDW.0>  (1) 
0.53027

>  <SCORE.INTRA.norm>  (1) 
0.00600157

>  <SCORE.RESTR>  (1) 
0

>  <SCORE.RESTR.CAVITY>  (1) 
0

>  <SCORE.RESTR.norm>  (1) 
0

>  <SCORE.SYSTEM>  (1) 
0

>  <SCORE.SYSTEM.CONST>  (1) 
0

>  <SCORE.SYSTEM.DIHEDRAL>  (1) 
0

>  <SCORE.SYSTEM.norm>  (1) 
0

>  <SCORE.heavy>  (1) 
9

>  <SCORE.norm>  (1) 
-0.285576

>  <TETHERED ATOMS>  (1) 
1,2,3,4,5

>  <skeledock_score>  (1) 
25

$$$$
