F95
     RDKit          3D

 27 27  0  0  0  0  0  0  0  0999 V2000
  -23.4658   13.9179   28.7160 C   0  0  0  0  0  0  0  0  0  0  0  0
  -22.3957   14.7609   28.1035 C   0  0  0  0  0  0  0  0  0  0  0  0
  -22.6621   15.4813   27.1035 O   0  0  0  0  0  0  0  0  0  0  0  0
  -21.0737   14.7438   28.6533 N   0  0  0  0  0  0  0  0  0  0  0  0
  -19.9796   15.4971   28.0406 C   0  0  0  0  0  0  0  0  0  0  0  0
  -19.2920   14.6748   26.9830 C   0  0  0  0  0  0  0  0  0  0  0  0
  -19.4006   15.0132   25.6246 C   0  0  0  0  0  0  0  0  0  0  0  0
  -18.7625   14.2370   24.6522 C   0  0  0  0  0  0  0  0  0  0  0  0
  -18.0039   13.1198   25.0263 C   0  0  0  0  0  0  0  0  0  0  0  0
  -17.9020   12.7743   26.3800 C   0  0  0  0  0  0  0  0  0  0  0  0
  -18.5432   13.5461   27.3525 C   0  0  0  0  0  0  0  0  0  0  0  0
  -17.2126   12.1353   23.7992 S   0  0  0  0  0  0  0  0  0  0  0  0
  -17.4160   12.7515   22.4433 O   0  0  0  0  0  0  0  0  0  0  0  0
  -15.7374   12.0631   24.0780 O   0  0  0  0  0  0  0  0  0  0  0  0
  -17.8806   10.5413   23.8139 N   0  0  0  0  0  0  0  0  0  0  0  0
  -23.6111   14.2145   29.7757 H   0  0  0  0  0  0  0  0  0  0  0  0
  -23.1671   12.8499   28.6728 H   0  0  0  0  0  0  0  0  0  0  0  0
  -24.4254   14.0459   28.1712 H   0  0  0  0  0  0  0  0  0  0  0  0
  -20.8942   14.1514   29.4965 H   0  0  0  0  0  0  0  0  0  0  0  0
  -20.3822   16.4183   27.5661 H   0  0  0  0  0  0  0  0  0  0  0  0
  -19.2640   15.8052   28.8337 H   0  0  0  0  0  0  0  0  0  0  0  0
  -19.9791   15.8752   25.3167 H   0  0  0  0  0  0  0  0  0  0  0  0
  -18.8613   14.5074   23.6087 H   0  0  0  0  0  0  0  0  0  0  0  0
  -17.3318   11.9053   26.6826 H   0  0  0  0  0  0  0  0  0  0  0  0
  -18.4568   13.2649   28.3950 H   0  0  0  0  0  0  0  0  0  0  0  0
  -17.8283   10.1797   22.8353 H   0  0  0  0  0  0  0  0  0  0  0  0
  -17.2410    9.9480   24.3886 H   0  0  0  0  0  0  0  0  0  0  0  0
  1  2  1  0
  2  3  2  0
  2  4  1  0
  4  5  1  0
  5  6  1  0
  6  7  2  0
  7  8  1  0
  8  9  2  0
  9 10  1  0
 10 11  2  0
  9 12  1  0
 12 13  2  0
 12 14  2  0
 12 15  1  0
  6 11  1  0
  1 16  1  0
  1 17  1  0
  1 18  1  0
  4 19  1  0
  5 20  1  0
  5 21  1  0
  7 22  1  0
  8 23  1  0
 10 24  1  0
 11 25  1  0
 15 26  1  0
 15 27  1  0
M  END
>  <CHROM.1>  (1) 
-88.04379354,111.15467341,4.10949938,148.82751436,-0.52131829,-0.42094267
1.88657872

>  <Name>  (1) 
F95

>  <RI>  (1) 
1.30209e+07

>  <Rbt.Current_Directory>  (1) 
/data/out

>  <Rbt.Executable>  (1) 
rbdock ($Id: //depot/dev/client3/rdock/2013.1/src/exe/rbdock.cxx#4 $)

>  <Rbt.Library>  (1) 
libRbt.so (2013.1, Build901 2013/11/27)

>  <Rbt.Parameter_File>  (1) 
/python_libraries/phenodiscovery/docking/templates/RDOCK_TETHER.conf

>  <Rbt.Receptor>  (1) 
/data/out/rdock-opt/grid/rdock-grid.prm

>  <SCORE>  (1) 
-3.52562

>  <SCORE.INTER>  (1) 
-4.66838

>  <SCORE.INTER.CONST>  (1) 
1

>  <SCORE.INTER.POLAR>  (1) 
-0.848528

>  <SCORE.INTER.REPUL>  (1) 
0

>  <SCORE.INTER.ROT>  (1) 
4

>  <SCORE.INTER.VDW>  (1) 
-11.1834

>  <SCORE.INTER.norm>  (1) 
-0.311225

>  <SCORE.INTRA>  (1) 
1.14276

>  <SCORE.INTRA.DIHEDRAL>  (1) 
1.40328

>  <SCORE.INTRA.DIHEDRAL.0>  (1) 
3.11041

>  <SCORE.INTRA.POLAR>  (1) 
0

>  <SCORE.INTRA.POLAR.0>  (1) 
0

>  <SCORE.INTRA.REPUL>  (1) 
0

>  <SCORE.INTRA.REPUL.0>  (1) 
0

>  <SCORE.INTRA.VDW>  (1) 
0.441121

>  <SCORE.INTRA.VDW.0>  (1) 
-1.50316

>  <SCORE.INTRA.norm>  (1) 
0.0761839

>  <SCORE.RESTR>  (1) 
0

>  <SCORE.RESTR.CAVITY>  (1) 
0

>  <SCORE.RESTR.norm>  (1) 
0

>  <SCORE.SYSTEM>  (1) 
0

>  <SCORE.SYSTEM.CONST>  (1) 
0

>  <SCORE.SYSTEM.DIHEDRAL>  (1) 
0

>  <SCORE.SYSTEM.norm>  (1) 
0

>  <SCORE.heavy>  (1) 
15

>  <SCORE.norm>  (1) 
-0.235041

>  <TETHERED ATOMS>  (1) 
6,7,8,9,10,11,1,2,4,5

>  <skeledock_score>  (1) 
44

$$$$
