F217
     RDKit          3D

 28 29  0  0  0  0  0  0  0  0999 V2000
  -20.5514   15.4387   25.2474 C   0  0  0  0  0  0  0  0  0  0  0  0
  -20.3720   15.3892   26.7336 C   0  0  0  0  0  0  0  0  0  0  0  0
  -21.0094   16.2571   27.5620 N   0  0  0  0  0  0  0  0  0  0  0  0
  -20.5221   15.9376   28.7728 C   0  0  0  0  0  0  0  0  0  0  0  0
  -20.8064   16.5590   29.9867 C   0  0  0  0  0  0  0  0  0  0  0  0
  -20.1332   16.0990   31.1326 C   0  0  0  0  0  0  0  0  0  0  0  0
  -19.1958   15.0475   31.0360 C   0  0  0  0  0  0  0  0  0  0  0  0
  -18.9228   14.4473   29.7930 C   0  0  0  0  0  0  0  0  0  0  0  0
  -19.6208   14.9161   28.6745 C   0  0  0  0  0  0  0  0  0  0  0  0
  -19.5188   14.5457   27.3827 N   0  0  0  0  0  0  0  0  0  0  0  0
  -18.5872   13.5745   26.7899 C   0  0  0  0  0  0  0  0  0  0  0  0
  -19.2894   12.2667   26.3880 C   0  0  0  0  0  0  0  0  0  0  0  0
  -19.8020   12.2361   24.9738 C   0  0  0  0  0  0  0  0  0  0  0  0
  -19.1155   12.6880   24.0197 O   0  0  0  0  0  0  0  0  0  0  0  0
  -21.0954   11.6951   24.7080 N   0  0  0  0  0  0  0  0  0  0  0  0
  -21.2108   16.2887   24.9722 H   0  0  0  0  0  0  0  0  0  0  0  0
  -21.0246   14.5054   24.8853 H   0  0  0  0  0  0  0  0  0  0  0  0
  -19.5697   15.5810   24.7506 H   0  0  0  0  0  0  0  0  0  0  0  0
  -21.5153   17.3747   30.0459 H   0  0  0  0  0  0  0  0  0  0  0  0
  -20.3298   16.5585   32.0925 H   0  0  0  0  0  0  0  0  0  0  0  0
  -18.6770   14.7069   31.9226 H   0  0  0  0  0  0  0  0  0  0  0  0
  -18.1897   13.6563   29.7229 H   0  0  0  0  0  0  0  0  0  0  0  0
  -17.7480   13.3530   27.4815 H   0  0  0  0  0  0  0  0  0  0  0  0
  -18.1267   14.0231   25.8840 H   0  0  0  0  0  0  0  0  0  0  0  0
  -20.1550   12.1134   27.0673 H   0  0  0  0  0  0  0  0  0  0  0  0
  -18.6042   11.4090   26.5328 H   0  0  0  0  0  0  0  0  0  0  0  0
  -21.6840   11.3191   25.4842 H   0  0  0  0  0  0  0  0  0  0  0  0
  -21.4664   11.6695   23.7323 H   0  0  0  0  0  0  0  0  0  0  0  0
  1  2  1  0
  2  3  2  0
  3  4  1  0
  4  5  2  0
  5  6  1  0
  6  7  2  0
  7  8  1  0
  8  9  2  0
  9 10  1  0
 10 11  1  0
 11 12  1  0
 12 13  1  0
 13 14  2  0
 13 15  1  0
 10  2  1  0
  4  9  1  0
  1 16  1  0
  1 17  1  0
  1 18  1  0
  5 19  1  0
  6 20  1  0
  7 21  1  0
  8 22  1  0
 11 23  1  0
 11 24  1  0
 12 25  1  0
 12 26  1  0
 15 27  1  0
 15 28  1  0
M  END
>  <CHROM.1>  (1) 
-80.92044445,91.25860332,42.38527833,1.74682566,-0.84433215,1.09876345

>  <Name>  (1) 
F217

>  <RI>  (1) 
2.1688e+07

>  <Rbt.Current_Directory>  (1) 
/data/out

>  <Rbt.Executable>  (1) 
rbdock ($Id: //depot/dev/client3/rdock/2013.1/src/exe/rbdock.cxx#4 $)

>  <Rbt.Library>  (1) 
libRbt.so (2013.1, Build901 2013/11/27)

>  <Rbt.Parameter_File>  (1) 
/python_libraries/phenodiscovery/docking/templates/RDOCK_TETHER.conf

>  <Rbt.Receptor>  (1) 
/data/out/rdock-opt/grid/rdock-grid.prm

>  <SCORE>  (1) 
-3.97804

>  <SCORE.INTER>  (1) 
-6.33549

>  <SCORE.INTER.CONST>  (1) 
1

>  <SCORE.INTER.POLAR>  (1) 
-1.80769

>  <SCORE.INTER.REPUL>  (1) 
0

>  <SCORE.INTER.ROT>  (1) 
3

>  <SCORE.INTER.VDW>  (1) 
-8.58933

>  <SCORE.INTER.norm>  (1) 
-0.422366

>  <SCORE.INTRA>  (1) 
2.35745

>  <SCORE.INTRA.DIHEDRAL>  (1) 
4.25345

>  <SCORE.INTRA.DIHEDRAL.0>  (1) 
3.39495

>  <SCORE.INTRA.POLAR>  (1) 
0

>  <SCORE.INTRA.POLAR.0>  (1) 
0

>  <SCORE.INTRA.REPUL>  (1) 
0

>  <SCORE.INTRA.REPUL.0>  (1) 
0

>  <SCORE.INTRA.VDW>  (1) 
0.230722

>  <SCORE.INTRA.VDW.0>  (1) 
-0.347893

>  <SCORE.INTRA.norm>  (1) 
0.157163

>  <SCORE.RESTR>  (1) 
0

>  <SCORE.RESTR.CAVITY>  (1) 
0

>  <SCORE.RESTR.norm>  (1) 
0

>  <SCORE.SYSTEM>  (1) 
0

>  <SCORE.SYSTEM.CONST>  (1) 
0

>  <SCORE.SYSTEM.DIHEDRAL>  (1) 
0

>  <SCORE.SYSTEM.norm>  (1) 
0

>  <SCORE.heavy>  (1) 
15

>  <SCORE.norm>  (1) 
-0.265202

>  <TETHERED ATOMS>  (1) 
4,5,6,7,8,9,10,11,12,13

>  <skeledock_score>  (1) 
50

$$$$
