F11
     RDKit          3D

 16 17  0  0  0  0  0  0  0  0999 V2000
  -18.8300   12.7294   27.5418 Br  0  0  0  0  0  0  0  0  0  0  0  0
  -18.9616   13.1513   29.4059 C   0  0  0  0  0  0  0  0  0  0  0  0
  -18.2360   12.3633   30.3052 C   0  0  0  0  0  0  0  0  0  0  0  0
  -18.2997   12.6335   31.6726 C   0  0  0  0  0  0  0  0  0  0  0  0
  -19.0632   13.6587   32.1306 N   0  0  0  0  0  0  0  0  0  0  0  0
  -19.7820   14.4460   31.2882 C   0  0  0  0  0  0  0  0  0  0  0  0
  -20.5312   15.4603   31.7929 N   0  0  0  0  0  0  0  0  0  0  0  0
  -21.2663   16.2740   30.9912 C   0  0  0  0  0  0  0  0  0  0  0  0
  -21.2678   16.0822   29.6088 C   0  0  0  0  0  0  0  0  0  0  0  0
  -20.5088   15.0488   29.0560 C   0  0  0  0  0  0  0  0  0  0  0  0
  -19.7509   14.2119   29.8933 C   0  0  0  0  0  0  0  0  0  0  0  0
  -17.6248   11.5447   29.9473 H   0  0  0  0  0  0  0  0  0  0  0  0
  -17.7400   12.0265   32.3715 H   0  0  0  0  0  0  0  0  0  0  0  0
  -21.8515   17.0723   31.4279 H   0  0  0  0  0  0  0  0  0  0  0  0
  -21.8536   16.7304   28.9698 H   0  0  0  0  0  0  0  0  0  0  0  0
  -20.5209   14.9138   27.9830 H   0  0  0  0  0  0  0  0  0  0  0  0
  1  2  1  0
  2  3  2  0
  3  4  1  0
  4  5  2  0
  5  6  1  0
  6  7  2  0
  7  8  1  0
  8  9  2  0
  9 10  1  0
 10 11  2  0
 11  2  1  0
 11  6  1  0
  3 12  1  0
  4 13  1  0
  8 14  1  0
  9 15  1  0
 10 16  1  0
M  END
>  <CHROM.1>  (1) 
-2.31862738,0.89449940,-1.70871246

>  <Name>  (1) 
F11

>  <RI>  (1) 
3.87477e+07

>  <Rbt.Current_Directory>  (1) 
/data/out

>  <Rbt.Executable>  (1) 
rbdock ($Id: //depot/dev/client3/rdock/2013.1/src/exe/rbdock.cxx#4 $)

>  <Rbt.Library>  (1) 
libRbt.so (2013.1, Build901 2013/11/27)

>  <Rbt.Parameter_File>  (1) 
/python_libraries/phenodiscovery/docking/templates/RDOCK_TETHER.conf

>  <Rbt.Receptor>  (1) 
/data/out/rdock-opt/grid/rdock-grid.prm

>  <SCORE>  (1) 
-2.79026

>  <SCORE.INTER>  (1) 
-2.79026

>  <SCORE.INTER.CONST>  (1) 
1

>  <SCORE.INTER.POLAR>  (1) 
0

>  <SCORE.INTER.REPUL>  (1) 
0

>  <SCORE.INTER.ROT>  (1) 
0

>  <SCORE.INTER.VDW>  (1) 
-8.19026

>  <SCORE.INTER.norm>  (1) 
-0.25366

>  <SCORE.INTRA>  (1) 
0

>  <SCORE.INTRA.DIHEDRAL>  (1) 
0

>  <SCORE.INTRA.DIHEDRAL.0>  (1) 
0

>  <SCORE.INTRA.POLAR>  (1) 
0

>  <SCORE.INTRA.POLAR.0>  (1) 
0

>  <SCORE.INTRA.REPUL>  (1) 
0

>  <SCORE.INTRA.REPUL.0>  (1) 
0

>  <SCORE.INTRA.VDW>  (1) 
0

>  <SCORE.INTRA.VDW.0>  (1) 
0

>  <SCORE.INTRA.norm>  (1) 
0

>  <SCORE.RESTR>  (1) 
0

>  <SCORE.RESTR.CAVITY>  (1) 
0

>  <SCORE.RESTR.norm>  (1) 
0

>  <SCORE.SYSTEM>  (1) 
0

>  <SCORE.SYSTEM.CONST>  (1) 
0

>  <SCORE.SYSTEM.DIHEDRAL>  (1) 
0

>  <SCORE.SYSTEM.norm>  (1) 
0

>  <SCORE.heavy>  (1) 
11

>  <SCORE.norm>  (1) 
-0.25366

>  <TETHERED ATOMS>  (1) 
7,2,11,10,1,9,8

>  <skeledock_score>  (1) 
37

$$$$
