F584
     RDKit          3D

 27 28  0  0  0  0  0  0  0  0999 V2000
  -22.1162   17.2950   28.0852 C   0  0  0  0  0  0  0  0  0  0  0  0
  -22.0085   15.9882   28.6403 O   0  0  0  0  0  0  0  0  0  0  0  0
  -20.8100   15.4039   29.0851 C   0  0  0  0  0  0  0  0  0  0  0  0
  -20.2011   15.8032   30.2906 C   0  0  0  0  0  0  0  0  0  0  0  0
  -19.0193   15.2003   30.7199 C   0  0  0  0  0  0  0  0  0  0  0  0
  -18.4185   14.2057   29.9507 C   0  0  0  0  0  0  0  0  0  0  0  0
  -18.9864   13.8073   28.7345 C   0  0  0  0  0  0  0  0  0  0  0  0
  -18.3251   12.7916   27.9575 N   0  0  0  0  0  0  0  0  0  0  0  0
  -18.2400   12.8381   26.5253 C   0  0  0  0  0  0  0  0  0  0  0  0
  -17.8001   11.8410   25.8934 O   0  0  0  0  0  0  0  0  0  0  0  0
  -18.6513   14.0729   25.7775 C   0  0  0  0  0  0  0  0  0  0  0  0
  -20.1754   14.2659   25.7614 C   0  0  0  0  0  0  0  0  0  0  0  0
  -20.8921   13.8635   27.0622 C   0  0  0  0  0  0  0  0  0  0  0  0
  -20.2043   14.3923   28.3043 C   0  0  0  0  0  0  0  0  0  0  0  0
  -21.7878   18.0534   28.8270 H   0  0  0  0  0  0  0  0  0  0  0  0
  -21.5023   17.3700   27.1629 H   0  0  0  0  0  0  0  0  0  0  0  0
  -23.1760   17.4908   27.8230 H   0  0  0  0  0  0  0  0  0  0  0  0
  -20.6385   16.5740   30.9097 H   0  0  0  0  0  0  0  0  0  0  0  0
  -18.5644   15.5086   31.6525 H   0  0  0  0  0  0  0  0  0  0  0  0
  -17.4961   13.7539   30.2941 H   0  0  0  0  0  0  0  0  0  0  0  0
  -17.7887   12.0466   28.4574 H   0  0  0  0  0  0  0  0  0  0  0  0
  -18.1737   14.9541   26.2582 H   0  0  0  0  0  0  0  0  0  0  0  0
  -18.2758   14.0294   24.7319 H   0  0  0  0  0  0  0  0  0  0  0  0
  -20.6043   13.6648   24.9300 H   0  0  0  0  0  0  0  0  0  0  0  0
  -20.3950   15.3334   25.5414 H   0  0  0  0  0  0  0  0  0  0  0  0
  -21.9444   14.2117   26.9976 H   0  0  0  0  0  0  0  0  0  0  0  0
  -20.9517   12.7550   27.1276 H   0  0  0  0  0  0  0  0  0  0  0  0
  1  2  1  0
  2  3  1  0
  3  4  2  0
  4  5  1  0
  5  6  2  0
  6  7  1  0
  7  8  1  0
  8  9  1  0
  9 10  2  0
  9 11  1  0
 11 12  1  0
 12 13  1  0
 13 14  1  0
  3 14  1  0
 14  7  2  0
  1 15  1  0
  1 16  1  0
  1 17  1  0
  4 18  1  0
  5 19  1  0
  6 20  1  0
  8 21  1  0
 11 22  1  0
 11 23  1  0
 12 24  1  0
 12 25  1  0
 13 26  1  0
 13 27  1  0
M  END
>  <CHROM.1>  (1) 
74.21065115,-2.12807845,0.43557428,-1.90033708

>  <Name>  (1) 
F584

>  <RI>  (1) 
1.92478e+07

>  <Rbt.Current_Directory>  (1) 
/data/out

>  <Rbt.Executable>  (1) 
rbdock ($Id: //depot/dev/client3/rdock/2013.1/src/exe/rbdock.cxx#4 $)

>  <Rbt.Library>  (1) 
libRbt.so (2013.1, Build901 2013/11/27)

>  <Rbt.Parameter_File>  (1) 
/python_libraries/phenodiscovery/docking/templates/RDOCK_TETHER.conf

>  <Rbt.Receptor>  (1) 
/data/out/rdock-opt/grid/rdock-grid.prm

>  <SCORE>  (1) 
-1.59564

>  <SCORE.INTER>  (1) 
-2.47569

>  <SCORE.INTER.CONST>  (1) 
1

>  <SCORE.INTER.POLAR>  (1) 
0

>  <SCORE.INTER.REPUL>  (1) 
0.002748

>  <SCORE.INTER.ROT>  (1) 
1

>  <SCORE.INTER.VDW>  (1) 
-8.88943

>  <SCORE.INTER.norm>  (1) 
-0.176835

>  <SCORE.INTRA>  (1) 
0.880049

>  <SCORE.INTRA.DIHEDRAL>  (1) 
4.44339

>  <SCORE.INTRA.DIHEDRAL.0>  (1) 
1.87344e-05

>  <SCORE.INTRA.POLAR>  (1) 
0

>  <SCORE.INTRA.POLAR.0>  (1) 
0

>  <SCORE.INTRA.REPUL>  (1) 
0

>  <SCORE.INTRA.REPUL.0>  (1) 
0

>  <SCORE.INTRA.VDW>  (1) 
-1.34165

>  <SCORE.INTRA.VDW.0>  (1) 
0.136862

>  <SCORE.INTRA.norm>  (1) 
0.0628606

>  <SCORE.RESTR>  (1) 
0

>  <SCORE.RESTR.CAVITY>  (1) 
0

>  <SCORE.RESTR.norm>  (1) 
0

>  <SCORE.SYSTEM>  (1) 
0

>  <SCORE.SYSTEM.CONST>  (1) 
0

>  <SCORE.SYSTEM.DIHEDRAL>  (1) 
0

>  <SCORE.SYSTEM.norm>  (1) 
0

>  <SCORE.heavy>  (1) 
14

>  <SCORE.norm>  (1) 
-0.113975

>  <TETHERED ATOMS>  (1) 
4,3,14,13,2,12,9,11

>  <skeledock_score>  (1) 
22

$$$$
