F616
     RDKit          3D

 26 26  0  0  0  0  0  0  0  0999 V2000
  -14.5243   12.6471   23.0586 C   0  0  0  0  0  0  0  0  0  0  0  0
  -16.2865   12.9089   23.0635 S   0  0  0  0  0  0  0  0  0  0  0  0
  -16.5564   14.3854   22.9962 O   0  0  0  0  0  0  0  0  0  0  0  0
  -16.8941   12.2462   21.8588 O   0  0  0  0  0  0  0  0  0  0  0  0
  -17.0035   12.2716   24.5134 N   0  0  0  0  0  0  0  0  0  0  0  0
  -18.4507   12.1395   24.3425 C   0  0  0  0  0  0  0  0  0  0  0  0
  -19.1265   12.0048   25.7092 C   0  0  0  0  0  0  0  0  0  0  0  0
  -19.0339   13.2964   26.4784 C   0  0  0  0  0  0  0  0  0  0  0  0
  -18.3348   13.3453   27.6966 C   0  0  0  0  0  0  0  0  0  0  0  0
  -18.2674   14.5378   28.4231 C   0  0  0  0  0  0  0  0  0  0  0  0
  -18.8939   15.6897   27.9389 C   0  0  0  0  0  0  0  0  0  0  0  0
  -18.8286   16.8449   28.6455 F   0  0  0  0  0  0  0  0  0  0  0  0
  -19.5852   15.6511   26.7246 C   0  0  0  0  0  0  0  0  0  0  0  0
  -19.6545   14.4607   25.9943 C   0  0  0  0  0  0  0  0  0  0  0  0
  -14.0685   13.2120   22.2195 H   0  0  0  0  0  0  0  0  0  0  0  0
  -14.3039   11.5676   22.9299 H   0  0  0  0  0  0  0  0  0  0  0  0
  -14.0934   13.0016   24.0175 H   0  0  0  0  0  0  0  0  0  0  0  0
  -16.6024   11.3156   24.6549 H   0  0  0  0  0  0  0  0  0  0  0  0
  -18.6823   11.2444   23.7236 H   0  0  0  0  0  0  0  0  0  0  0  0
  -18.8561   13.0433   23.8353 H   0  0  0  0  0  0  0  0  0  0  0  0
  -20.1959   11.7293   25.5798 H   0  0  0  0  0  0  0  0  0  0  0  0
  -18.6351   11.1810   26.2726 H   0  0  0  0  0  0  0  0  0  0  0  0
  -17.8453   12.4602   28.0835 H   0  0  0  0  0  0  0  0  0  0  0  0
  -17.7297   14.5677   29.3621 H   0  0  0  0  0  0  0  0  0  0  0  0
  -20.0695   16.5432   26.3488 H   0  0  0  0  0  0  0  0  0  0  0  0
  -20.1999   14.4458   25.0589 H   0  0  0  0  0  0  0  0  0  0  0  0
  1  2  1  0
  2  3  2  0
  2  4  2  0
  2  5  1  0
  5  6  1  0
  6  7  1  0
  7  8  1  0
  8  9  2  0
  9 10  1  0
 10 11  2  0
 11 12  1  0
 11 13  1  0
 13 14  2  0
  8 14  1  0
  1 15  1  0
  1 16  1  0
  1 17  1  0
  5 18  1  0
  6 19  1  0
  6 20  1  0
  7 21  1  0
  7 22  1  0
  9 23  1  0
 10 24  1  0
 13 25  1  0
 14 26  1  0
M  END
>  <CHROM.1>  (1) 
-163.71652441,-162.48275719,68.79650735,-117.51878514,-1.23780671,-0.84192999
1.02973522

>  <Name>  (1) 
F616

>  <RI>  (1) 
3.24038e+07

>  <Rbt.Current_Directory>  (1) 
/data/out

>  <Rbt.Executable>  (1) 
rbdock ($Id: //depot/dev/client3/rdock/2013.1/src/exe/rbdock.cxx#4 $)

>  <Rbt.Library>  (1) 
libRbt.so (2013.1, Build901 2013/11/27)

>  <Rbt.Parameter_File>  (1) 
/python_libraries/phenodiscovery/docking/templates/RDOCK_TETHER.conf

>  <Rbt.Receptor>  (1) 
/data/out/rdock-opt/grid/rdock-grid.prm

>  <SCORE>  (1) 
-4.5723

>  <SCORE.INTER>  (1) 
-5.78351

>  <SCORE.INTER.CONST>  (1) 
1

>  <SCORE.INTER.POLAR>  (1) 
-0.795968

>  <SCORE.INTER.REPUL>  (1) 
0.136313

>  <SCORE.INTER.ROT>  (1) 
4

>  <SCORE.INTER.VDW>  (1) 
-13.1588

>  <SCORE.INTER.norm>  (1) 
-0.413108

>  <SCORE.INTRA>  (1) 
1.21121

>  <SCORE.INTRA.DIHEDRAL>  (1) 
1.05805

>  <SCORE.INTRA.DIHEDRAL.0>  (1) 
0.873327

>  <SCORE.INTRA.POLAR>  (1) 
0

>  <SCORE.INTRA.POLAR.0>  (1) 
0

>  <SCORE.INTRA.REPUL>  (1) 
0

>  <SCORE.INTRA.REPUL.0>  (1) 
0

>  <SCORE.INTRA.VDW>  (1) 
0.682188

>  <SCORE.INTRA.VDW.0>  (1) 
-0.785002

>  <SCORE.INTRA.norm>  (1) 
0.0865153

>  <SCORE.RESTR>  (1) 
0

>  <SCORE.RESTR.CAVITY>  (1) 
0

>  <SCORE.RESTR.norm>  (1) 
0

>  <SCORE.SYSTEM>  (1) 
0

>  <SCORE.SYSTEM.CONST>  (1) 
0

>  <SCORE.SYSTEM.DIHEDRAL>  (1) 
0

>  <SCORE.SYSTEM.norm>  (1) 
0

>  <SCORE.heavy>  (1) 
14

>  <SCORE.norm>  (1) 
-0.326593

>  <TETHERED ATOMS>  (1) 
8,9,10,11,13,14,5,6,7

>  <skeledock_score>  (1) 
48

$$$$
