F558
     RDKit          3D

 32 33  0  0  0  0  0  0  0  0999 V2000
  -19.4446   11.4229   35.7199 C   0  0  0  0  0  0  0  0  0  0  0  0
  -20.1297   11.4858   34.4747 O   0  0  0  0  0  0  0  0  0  0  0  0
  -19.9674   12.5456   33.5780 C   0  0  0  0  0  0  0  0  0  0  0  0
  -19.2324   13.5263   33.8789 O   0  0  0  0  0  0  0  0  0  0  0  0
  -20.6813   12.5222   32.3347 N   0  0  0  0  0  0  0  0  0  0  0  0
  -20.4681   13.4531   31.2594 C   0  0  0  0  0  0  0  0  0  0  0  0
  -19.1958   13.9904   30.9938 C   0  0  0  0  0  0  0  0  0  0  0  0
  -19.0116   14.8759   29.9280 C   0  0  0  0  0  0  0  0  0  0  0  0
  -20.0900   15.2248   29.1008 C   0  0  0  0  0  0  0  0  0  0  0  0
  -19.8954   16.2161   27.9843 C   0  0  0  0  0  0  0  0  0  0  0  0
  -19.5028   15.5043   26.7170 C   0  0  0  0  0  0  0  0  0  0  0  0
  -20.4859   14.9457   25.8859 C   0  0  0  0  0  0  0  0  0  0  0  0
  -20.1073   14.3196   24.6963 C   0  0  0  0  0  0  0  0  0  0  0  0
  -18.7946   14.2504   24.3501 N   0  0  0  0  0  0  0  0  0  0  0  0
  -17.8205   14.7749   25.1398 C   0  0  0  0  0  0  0  0  0  0  0  0
  -18.1553   15.4108   26.3378 C   0  0  0  0  0  0  0  0  0  0  0  0
  -21.3566   14.6772   29.3556 C   0  0  0  0  0  0  0  0  0  0  0  0
  -21.5399   13.7896   30.4195 C   0  0  0  0  0  0  0  0  0  0  0  0
  -19.7188   12.2958   36.3494 H   0  0  0  0  0  0  0  0  0  0  0  0
  -18.3471   11.4128   35.5499 H   0  0  0  0  0  0  0  0  0  0  0  0
  -19.7351   10.4924   36.2493 H   0  0  0  0  0  0  0  0  0  0  0  0
  -21.4641   11.8356   32.2467 H   0  0  0  0  0  0  0  0  0  0  0  0
  -18.3393   13.7101   31.5917 H   0  0  0  0  0  0  0  0  0  0  0  0
  -18.0271   15.2887   29.7448 H   0  0  0  0  0  0  0  0  0  0  0  0
  -19.1127   16.9615   28.2453 H   0  0  0  0  0  0  0  0  0  0  0  0
  -20.8394   16.7863   27.8404 H   0  0  0  0  0  0  0  0  0  0  0  0
  -21.5338   15.0018   26.1534 H   0  0  0  0  0  0  0  0  0  0  0  0
  -20.8582   13.8907   24.0463 H   0  0  0  0  0  0  0  0  0  0  0  0
  -16.7849   14.7026   24.8354 H   0  0  0  0  0  0  0  0  0  0  0  0
  -17.3731   15.8350   26.9549 H   0  0  0  0  0  0  0  0  0  0  0  0
  -22.2034   14.9396   28.7336 H   0  0  0  0  0  0  0  0  0  0  0  0
  -22.5233   13.3736   30.6000 H   0  0  0  0  0  0  0  0  0  0  0  0
  1  2  1  0
  2  3  1  0
  3  4  2  0
  3  5  1  0
  5  6  1  0
  6  7  2  0
  7  8  1  0
  8  9  2  0
  9 10  1  0
 10 11  1  0
 11 12  2  0
 12 13  1  0
 13 14  2  0
 14 15  1  0
 15 16  2  0
  9 17  1  0
 17 18  2  0
  6 18  1  0
 11 16  1  0
  1 19  1  0
  1 20  1  0
  1 21  1  0
  5 22  1  0
  7 23  1  0
  8 24  1  0
 10 25  1  0
 10 26  1  0
 12 27  1  0
 13 28  1  0
 15 29  1  0
 16 30  1  0
 17 31  1  0
 18 32  1  0
M  END
>  <CHROM.1>  (1) 
-2.93643036,33.42417154,90.31392579,83.74946286,-1.91866593,0.03348288,-1.40901732

>  <Name>  (1) 
F558

>  <RI>  (1) 
1.96235e+07

>  <Rbt.Current_Directory>  (1) 
/data/out

>  <Rbt.Executable>  (1) 
rbdock ($Id: //depot/dev/client3/rdock/2013.1/src/exe/rbdock.cxx#4 $)

>  <Rbt.Library>  (1) 
libRbt.so (2013.1, Build901 2013/11/27)

>  <Rbt.Parameter_File>  (1) 
/python_libraries/phenodiscovery/docking/templates/RDOCK_TETHER.conf

>  <Rbt.Receptor>  (1) 
/data/out/rdock-opt/grid/rdock-grid.prm

>  <SCORE>  (1) 
-0.867965

>  <SCORE.INTER>  (1) 
-0.854646

>  <SCORE.INTER.CONST>  (1) 
1

>  <SCORE.INTER.POLAR>  (1) 
0

>  <SCORE.INTER.REPUL>  (1) 
0

>  <SCORE.INTER.ROT>  (1) 
4

>  <SCORE.INTER.VDW>  (1) 
-10.2546

>  <SCORE.INTER.norm>  (1) 
-0.0474803

>  <SCORE.INTRA>  (1) 
-0.0133193

>  <SCORE.INTRA.DIHEDRAL>  (1) 
-0.506268

>  <SCORE.INTRA.DIHEDRAL.0>  (1) 
4.96967

>  <SCORE.INTRA.POLAR>  (1) 
0

>  <SCORE.INTRA.POLAR.0>  (1) 
0

>  <SCORE.INTRA.REPUL>  (1) 
0

>  <SCORE.INTRA.REPUL.0>  (1) 
0

>  <SCORE.INTRA.VDW>  (1) 
0.239815

>  <SCORE.INTRA.VDW.0>  (1) 
-1.32359

>  <SCORE.INTRA.norm>  (1) 
-0.00073996

>  <SCORE.RESTR>  (1) 
0

>  <SCORE.RESTR.CAVITY>  (1) 
0

>  <SCORE.RESTR.norm>  (1) 
0

>  <SCORE.SYSTEM>  (1) 
0

>  <SCORE.SYSTEM.CONST>  (1) 
0

>  <SCORE.SYSTEM.DIHEDRAL>  (1) 
0

>  <SCORE.SYSTEM.norm>  (1) 
0

>  <SCORE.heavy>  (1) 
18

>  <SCORE.norm>  (1) 
-0.0482203

>  <TETHERED ATOMS>  (1) 
6,7,8,9,10,17,18,11,16,15,14

>  <skeledock_score>  (1) 
38

$$$$
