Cc1nc2ccccc2n1CCC(=O)N(C)[C@H](C)CO
     RDKit          3D

 41 42  0  0  0  0  0  0  0  0999 V2000
  -18.1731   12.8433   23.4140 C   0  0  0  0  0  0  0  0  0  0  0  0
  -19.2751   12.7224   24.4211 C   0  0  0  0  0  0  0  0  0  0  0  0
  -20.5014   12.2418   24.0910 N   0  0  0  0  0  0  0  0  0  0  0  0
  -21.1904   12.3502   25.2399 C   0  0  0  0  0  0  0  0  0  0  0  0
  -22.5394   12.0713   25.4428 C   0  0  0  0  0  0  0  0  0  0  0  0
  -23.0743   12.3156   26.7206 C   0  0  0  0  0  0  0  0  0  0  0  0
  -22.2549   12.8224   27.7537 C   0  0  0  0  0  0  0  0  0  0  0  0
  -20.8990   13.1113   27.5118 C   0  0  0  0  0  0  0  0  0  0  0  0
  -20.4021   12.8676   26.2274 C   0  0  0  0  0  0  0  0  0  0  0  0
  -19.1832   13.1294   25.7189 N   0  0  0  0  0  0  0  0  0  0  0  0
  -18.1328   13.9651   26.3108 C   0  0  0  0  0  0  0  0  0  0  0  0
  -18.5718   15.4176   26.4213 C   0  0  0  0  0  0  0  0  0  0  0  0
  -17.4559   16.2734   26.9631 C   0  0  0  0  0  0  0  0  0  0  0  0
  -16.5271   15.7133   27.6095 O   0  0  0  0  0  0  0  0  0  0  0  0
  -17.4390   17.7063   26.7832 N   0  0  0  0  0  0  0  0  0  0  0  0
  -18.7050   18.4385   26.6367 C   0  0  0  0  0  0  0  0  0  0  0  0
  -16.1556   18.4346   26.8780 C   0  0  0  0  0  0  0  0  0  0  0  0
  -15.0910   17.7776   25.9929 C   0  0  0  0  0  0  0  0  0  0  0  0
  -15.6791   18.5543   28.3379 C   0  0  0  0  0  0  0  0  0  0  0  0
  -14.9648   17.4091   28.7189 O   0  0  0  0  0  0  0  0  0  0  0  0
  -17.3231   12.1922   23.6992 H   0  0  0  0  0  0  0  0  0  0  0  0
  -17.8333   13.8968   23.3423 H   0  0  0  0  0  0  0  0  0  0  0  0
  -18.5345   12.5223   22.4144 H   0  0  0  0  0  0  0  0  0  0  0  0
  -23.1585   11.6859   24.6430 H   0  0  0  0  0  0  0  0  0  0  0  0
  -24.1186   12.1086   26.9148 H   0  0  0  0  0  0  0  0  0  0  0  0
  -22.6754   13.0006   28.7349 H   0  0  0  0  0  0  0  0  0  0  0  0
  -20.2755   13.5106   28.3000 H   0  0  0  0  0  0  0  0  0  0  0  0
  -17.2026   13.9117   25.7066 H   0  0  0  0  0  0  0  0  0  0  0  0
  -17.8768   13.5647   27.3155 H   0  0  0  0  0  0  0  0  0  0  0  0
  -18.9053   15.7526   25.4194 H   0  0  0  0  0  0  0  0  0  0  0  0
  -19.4380   15.5085   27.1060 H   0  0  0  0  0  0  0  0  0  0  0  0
  -18.5723   19.5268   26.7980 H   0  0  0  0  0  0  0  0  0  0  0  0
  -19.1083   18.2921   25.6132 H   0  0  0  0  0  0  0  0  0  0  0  0
  -19.4411   18.0788   27.3868 H   0  0  0  0  0  0  0  0  0  0  0  0
  -16.2847   19.4767   26.5087 H   0  0  0  0  0  0  0  0  0  0  0  0
  -14.1698   18.3984   25.9827 H   0  0  0  0  0  0  0  0  0  0  0  0
  -14.8285   16.7643   26.3617 H   0  0  0  0  0  0  0  0  0  0  0  0
  -15.4672   17.6934   24.9513 H   0  0  0  0  0  0  0  0  0  0  0  0
  -16.5551   18.6966   29.0114 H   0  0  0  0  0  0  0  0  0  0  0  0
  -15.0237   19.4402   28.4673 H   0  0  0  0  0  0  0  0  0  0  0  0
  -15.5770   16.6375   28.5936 H   0  0  0  0  0  0  0  0  0  0  0  0
  1  2  1  0
  2  3  2  0
  3  4  1  0
  4  5  2  0
  5  6  1  0
  6  7  2  0
  7  8  1  0
  8  9  2  0
  9 10  1  0
 10 11  1  0
 11 12  1  0
 12 13  1  0
 13 14  2  0
 13 15  1  0
 15 16  1  0
 15 17  1  0
 17 18  1  0
 17 19  1  0
 19 20  1  0
 10  2  1  0
  9  4  1  0
  1 21  1  0
  1 22  1  0
  1 23  1  0
  5 24  1  0
  6 25  1  0
  7 26  1  0
  8 27  1  0
 11 28  1  0
 11 29  1  0
 12 30  1  0
 12 31  1  0
 16 32  1  0
 16 33  1  0
 16 34  1  0
 17 35  1  0
 18 36  1  0
 18 37  1  0
 18 38  1  0
 19 39  1  0
 19 40  1  0
 20 41  1  0
M  END
>  <CHROM.1>  (1) 
98.82065504,-177.00895201,-20.92242093,50.37792052,85.25827283,-58.29432572
2.58940713,-0.51242270,-2.20276099

>  <Name>  (1) 
Cc1nc2ccccc2n1CCC(=O)N(C)[C@H](C)CO

>  <RI>  (1) 
1.23517e+07

>  <Rbt.Current_Directory>  (1) 
/data/out

>  <Rbt.Executable>  (1) 
rbdock ($Id: //depot/dev/client3/rdock/2013.1/src/exe/rbdock.cxx#4 $)

>  <Rbt.Library>  (1) 
libRbt.so (2013.1, Build901 2013/11/27)

>  <Rbt.Parameter_File>  (1) 
/python_libraries/phenodiscovery/docking/templates/RDOCK_TETHER.conf

>  <Rbt.Receptor>  (1) 
/data/out/rdock-opt/grid/rdock-grid.prm

>  <SCORE>  (1) 
-15.9742

>  <SCORE.INTER>  (1) 
-12.0826

>  <SCORE.INTER.CONST>  (1) 
1

>  <SCORE.INTER.POLAR>  (1) 
-0.87178

>  <SCORE.INTER.REPUL>  (1) 
0.000573526

>  <SCORE.INTER.ROT>  (1) 
5

>  <SCORE.INTER.VDW>  (1) 
-19.5214

>  <SCORE.INTER.norm>  (1) 
-0.60413

>  <SCORE.INTRA>  (1) 
-3.89163

>  <SCORE.INTRA.DIHEDRAL>  (1) 
0.830971

>  <SCORE.INTRA.DIHEDRAL.0>  (1) 
6.65084

>  <SCORE.INTRA.POLAR>  (1) 
-0.997963

>  <SCORE.INTRA.POLAR.0>  (1) 
0

>  <SCORE.INTRA.REPUL>  (1) 
0

>  <SCORE.INTRA.REPUL.0>  (1) 
0

>  <SCORE.INTRA.VDW>  (1) 
-0.914035

>  <SCORE.INTRA.VDW.0>  (1) 
0.662975

>  <SCORE.INTRA.norm>  (1) 
-0.194581

>  <SCORE.RESTR>  (1) 
0

>  <SCORE.RESTR.CAVITY>  (1) 
0

>  <SCORE.RESTR.norm>  (1) 
0

>  <SCORE.SYSTEM>  (1) 
0

>  <SCORE.SYSTEM.CONST>  (1) 
0

>  <SCORE.SYSTEM.DIHEDRAL>  (1) 
0

>  <SCORE.SYSTEM.norm>  (1) 
0

>  <SCORE.heavy>  (1) 
20

>  <SCORE.norm>  (1) 
-0.798711

>  <TETHERED ATOMS>  (1) 
6,11,9,14,13,12,10,15,5,8,2,7,1,3,4

>  <skeledock_score>  (1) 
115

$$$$
