Cc1nc2ccccc2n1CCC(=O)NCC(C)(C)N
     RDKit          3D

 42 43  0  0  0  0  0  0  0  0999 V2000
  -17.9591   12.9467   23.9655 C   0  0  0  0  0  0  0  0  0  0  0  0
  -19.2154   12.8096   24.7718 C   0  0  0  0  0  0  0  0  0  0  0  0
  -20.3002   12.1484   24.2914 N   0  0  0  0  0  0  0  0  0  0  0  0
  -21.2052   12.2894   25.2758 C   0  0  0  0  0  0  0  0  0  0  0  0
  -22.5136   11.8129   25.2946 C   0  0  0  0  0  0  0  0  0  0  0  0
  -23.2996   12.1032   26.4247 C   0  0  0  0  0  0  0  0  0  0  0  0
  -22.7642   12.8560   27.4944 C   0  0  0  0  0  0  0  0  0  0  0  0
  -21.4369   13.3227   27.4453 C   0  0  0  0  0  0  0  0  0  0  0  0
  -20.6825   13.0115   26.3102 C   0  0  0  0  0  0  0  0  0  0  0  0
  -19.4112   13.3374   26.0135 N   0  0  0  0  0  0  0  0  0  0  0  0
  -18.4713   14.1219   26.8195 C   0  0  0  0  0  0  0  0  0  0  0  0
  -18.3913   15.5615   26.2994 C   0  0  0  0  0  0  0  0  0  0  0  0
  -17.0823   16.1956   26.6688 C   0  0  0  0  0  0  0  0  0  0  0  0
  -16.5750   15.9552   27.7980 O   0  0  0  0  0  0  0  0  0  0  0  0
  -16.4144   17.0659   25.7439 N   0  0  0  0  0  0  0  0  0  0  0  0
  -15.1306   17.7068   26.0366 C   0  0  0  0  0  0  0  0  0  0  0  0
  -14.9254   19.0071   25.2110 C   0  0  0  0  0  0  0  0  0  0  0  0
  -13.6767   19.7390   25.7365 C   0  0  0  0  0  0  0  0  0  0  0  0
  -16.1418   19.9432   25.3585 C   0  0  0  0  0  0  0  0  0  0  0  0
  -14.7197   18.7016   23.7887 N   0  0  0  0  0  0  0  0  0  0  0  0
  -17.5213   11.9415   23.7940 H   0  0  0  0  0  0  0  0  0  0  0  0
  -17.2046   13.5855   24.4638 H   0  0  0  0  0  0  0  0  0  0  0  0
  -18.2036   13.4047   22.9846 H   0  0  0  0  0  0  0  0  0  0  0  0
  -22.9152   11.2440   24.4661 H   0  0  0  0  0  0  0  0  0  0  0  0
  -24.3217   11.7510   26.4733 H   0  0  0  0  0  0  0  0  0  0  0  0
  -23.3795   13.0770   28.3569 H   0  0  0  0  0  0  0  0  0  0  0  0
  -21.0283   13.9056   28.2593 H   0  0  0  0  0  0  0  0  0  0  0  0
  -18.7891   14.1231   27.8835 H   0  0  0  0  0  0  0  0  0  0  0  0
  -17.4711   13.6382   26.7972 H   0  0  0  0  0  0  0  0  0  0  0  0
  -19.2241   16.1584   26.7288 H   0  0  0  0  0  0  0  0  0  0  0  0
  -18.5011   15.5677   25.1926 H   0  0  0  0  0  0  0  0  0  0  0  0
  -16.8378   17.2204   24.8015 H   0  0  0  0  0  0  0  0  0  0  0  0
  -15.0985   17.9471   27.1220 H   0  0  0  0  0  0  0  0  0  0  0  0
  -14.2961   16.9963   25.8484 H   0  0  0  0  0  0  0  0  0  0  0  0
  -12.7782   19.0909   25.6476 H   0  0  0  0  0  0  0  0  0  0  0  0
  -13.4930   20.6648   25.1496 H   0  0  0  0  0  0  0  0  0  0  0  0
  -13.8032   20.0180   26.8051 H   0  0  0  0  0  0  0  0  0  0  0  0
  -15.9658   20.8951   24.8126 H   0  0  0  0  0  0  0  0  0  0  0  0
  -16.3289   20.1791   26.4284 H   0  0  0  0  0  0  0  0  0  0  0  0
  -17.0564   19.4767   24.9355 H   0  0  0  0  0  0  0  0  0  0  0  0
  -15.1807   19.4296   23.1960 H   0  0  0  0  0  0  0  0  0  0  0  0
  -15.1679   17.7843   23.5592 H   0  0  0  0  0  0  0  0  0  0  0  0
  1  2  1  0
  2  3  2  0
  3  4  1  0
  4  5  2  0
  5  6  1  0
  6  7  2  0
  7  8  1  0
  8  9  2  0
  9 10  1  0
 10 11  1  0
 11 12  1  0
 12 13  1  0
 13 14  2  0
 13 15  1  0
 15 16  1  0
 16 17  1  0
 17 18  1  0
 17 19  1  0
 17 20  1  0
 10  2  1  0
  9  4  1  0
  1 21  1  0
  1 22  1  0
  1 23  1  0
  5 24  1  0
  6 25  1  0
  7 26  1  0
  8 27  1  0
 11 28  1  0
 11 29  1  0
 12 30  1  0
 12 31  1  0
 15 32  1  0
 16 33  1  0
 16 34  1  0
 18 35  1  0
 18 36  1  0
 18 37  1  0
 19 38  1  0
 19 39  1  0
 19 40  1  0
 20 41  1  0
 20 42  1  0
M  END
>  <CHROM.1>  (1) 
76.82392211,-155.44167720,-38.32057956,-155.43015722,170.78846561,143.23104237
2.72078507,-0.49241642,-2.18269461

>  <Name>  (1) 
Cc1nc2ccccc2n1CCC(=O)NCC(C)(C)N

>  <RI>  (1) 
3.43922e+07

>  <Rbt.Current_Directory>  (1) 
/data/out

>  <Rbt.Executable>  (1) 
rbdock ($Id: //depot/dev/client3/rdock/2013.1/src/exe/rbdock.cxx#4 $)

>  <Rbt.Library>  (1) 
libRbt.so (2013.1, Build901 2013/11/27)

>  <Rbt.Parameter_File>  (1) 
/python_libraries/phenodiscovery/docking/templates/RDOCK_TETHER.conf

>  <Rbt.Receptor>  (1) 
/data/out/rdock-opt/grid/rdock-grid.prm

>  <SCORE>  (1) 
-17.4687

>  <SCORE.INTER>  (1) 
-20.612

>  <SCORE.INTER.CONST>  (1) 
1

>  <SCORE.INTER.POLAR>  (1) 
-2.57548

>  <SCORE.INTER.REPUL>  (1) 
0

>  <SCORE.INTER.ROT>  (1) 
6

>  <SCORE.INTER.VDW>  (1) 
-23.2554

>  <SCORE.INTER.norm>  (1) 
-1.0306

>  <SCORE.INTRA>  (1) 
3.14327

>  <SCORE.INTRA.DIHEDRAL>  (1) 
3.69489

>  <SCORE.INTRA.DIHEDRAL.0>  (1) 
6.03219

>  <SCORE.INTRA.POLAR>  (1) 
0

>  <SCORE.INTRA.POLAR.0>  (1) 
0

>  <SCORE.INTRA.REPUL>  (1) 
0

>  <SCORE.INTRA.REPUL.0>  (1) 
0

>  <SCORE.INTRA.VDW>  (1) 
1.29582

>  <SCORE.INTRA.VDW.0>  (1) 
-2.03042

>  <SCORE.INTRA.norm>  (1) 
0.157164

>  <SCORE.RESTR>  (1) 
0

>  <SCORE.RESTR.CAVITY>  (1) 
0

>  <SCORE.RESTR.norm>  (1) 
0

>  <SCORE.SYSTEM>  (1) 
0

>  <SCORE.SYSTEM.CONST>  (1) 
0

>  <SCORE.SYSTEM.DIHEDRAL>  (1) 
0

>  <SCORE.SYSTEM.norm>  (1) 
0

>  <SCORE.heavy>  (1) 
20

>  <SCORE.norm>  (1) 
-0.873436

>  <TETHERED ATOMS>  (1) 
6,11,9,14,13,12,10,15,5,8,2,7,1,3,4

>  <skeledock_score>  (1) 
115

$$$$
