CNC(=O)c1cccc(NCc2cc[nH]n2)c1
     RDKit          3D

 31 32  0  0  0  0  0  0  0  0999 V2000
  -26.4806   15.0875   28.3862 C   0  0  0  0  0  0  0  0  0  0  0  0
  -25.2113   14.4304   28.0994 N   0  0  0  0  0  0  0  0  0  0  0  0
  -24.9575   13.8074   26.8307 C   0  0  0  0  0  0  0  0  0  0  0  0
  -25.7906   13.9471   25.8933 O   0  0  0  0  0  0  0  0  0  0  0  0
  -23.7244   13.0176   26.5949 C   0  0  0  0  0  0  0  0  0  0  0  0
  -23.6631   12.0510   25.5731 C   0  0  0  0  0  0  0  0  0  0  0  0
  -22.4918   11.3211   25.3595 C   0  0  0  0  0  0  0  0  0  0  0  0
  -21.3761   11.5357   26.1663 C   0  0  0  0  0  0  0  0  0  0  0  0
  -21.4112   12.5006   27.1775 C   0  0  0  0  0  0  0  0  0  0  0  0
  -20.2771   12.6443   28.0400 N   0  0  0  0  0  0  0  0  0  0  0  0
  -18.9127   12.7538   27.5401 C   0  0  0  0  0  0  0  0  0  0  0  0
  -18.8277   13.7773   26.4498 C   0  0  0  0  0  0  0  0  0  0  0  0
  -18.4928   13.5454   25.1271 C   0  0  0  0  0  0  0  0  0  0  0  0
  -18.5108   14.7967   24.5489 C   0  0  0  0  0  0  0  0  0  0  0  0
  -18.8293   15.7023   25.4908 N   0  0  0  0  0  0  0  0  0  0  0  0
  -19.0214   15.0940   26.6494 N   0  0  0  0  0  0  0  0  0  0  0  0
  -22.5800   13.2498   27.3835 C   0  0  0  0  0  0  0  0  0  0  0  0
  -26.4639   15.5102   29.4130 H   0  0  0  0  0  0  0  0  0  0  0  0
  -26.6512   15.9118   27.6621 H   0  0  0  0  0  0  0  0  0  0  0  0
  -27.3092   14.3518   28.3143 H   0  0  0  0  0  0  0  0  0  0  0  0
  -24.4651   14.4636   28.8289 H   0  0  0  0  0  0  0  0  0  0  0  0
  -24.5059   11.8751   24.9185 H   0  0  0  0  0  0  0  0  0  0  0  0
  -22.4526   10.5816   24.5700 H   0  0  0  0  0  0  0  0  0  0  0  0
  -20.4802   10.9493   26.0046 H   0  0  0  0  0  0  0  0  0  0  0  0
  -20.3971   12.4000   29.0494 H   0  0  0  0  0  0  0  0  0  0  0  0
  -18.5976   11.7726   27.1250 H   0  0  0  0  0  0  0  0  0  0  0  0
  -18.2210   13.0113   28.3701 H   0  0  0  0  0  0  0  0  0  0  0  0
  -18.2647   12.5997   24.6537 H   0  0  0  0  0  0  0  0  0  0  0  0
  -18.2995   15.0316   23.5142 H   0  0  0  0  0  0  0  0  0  0  0  0
  -18.9145   16.7327   25.3474 H   0  0  0  0  0  0  0  0  0  0  0  0
  -22.6072   13.9791   28.1835 H   0  0  0  0  0  0  0  0  0  0  0  0
  1  2  1  0
  2  3  1  0
  3  4  2  0
  3  5  1  0
  5  6  2  0
  6  7  1  0
  7  8  2  0
  8  9  1  0
  9 10  1  0
 10 11  1  0
 11 12  1  0
 12 13  1  0
 13 14  2  0
 14 15  1  0
 15 16  1  0
  9 17  2  0
 17  5  1  0
 16 12  2  0
  1 18  1  0
  1 19  1  0
  1 20  1  0
  2 21  1  0
  6 22  1  0
  7 23  1  0
  8 24  1  0
 10 25  1  0
 11 26  1  0
 11 27  1  0
 13 28  1  0
 14 29  1  0
 15 30  1  0
 17 31  1  0
M  END
>  <CHROM.1>  (1) 
158.00835035,48.91255625,48.84751040,-116.13775136,-2.80429561,-0.41990181
-1.07962207

>  <Name>  (1) 
CNC(=O)c1cccc(NCc2cc[nH]n2)c1

>  <RI>  (1) 
2.64877e+07

>  <Rbt.Current_Directory>  (1) 
/data/out

>  <Rbt.Executable>  (1) 
rbdock ($Id: //depot/dev/client3/rdock/2013.1/src/exe/rbdock.cxx#4 $)

>  <Rbt.Library>  (1) 
libRbt.so (2013.1, Build901 2013/11/27)

>  <Rbt.Parameter_File>  (1) 
/python_libraries/phenodiscovery/docking/templates/RDOCK_TETHER.conf

>  <Rbt.Receptor>  (1) 
/data/out/rdock-opt/grid/rdock-grid.prm

>  <SCORE>  (1) 
-17.3731

>  <SCORE.INTER>  (1) 
-18.2785

>  <SCORE.INTER.CONST>  (1) 
1

>  <SCORE.INTER.POLAR>  (1) 
-1.12891

>  <SCORE.INTER.REPUL>  (1) 
0

>  <SCORE.INTER.ROT>  (1) 
4

>  <SCORE.INTER.VDW>  (1) 
-23.8402

>  <SCORE.INTER.norm>  (1) 
-1.07521

>  <SCORE.INTRA>  (1) 
0.905435

>  <SCORE.INTRA.DIHEDRAL>  (1) 
-0.853638

>  <SCORE.INTRA.DIHEDRAL.0>  (1) 
14.9265

>  <SCORE.INTRA.POLAR>  (1) 
0

>  <SCORE.INTRA.POLAR.0>  (1) 
0

>  <SCORE.INTRA.REPUL>  (1) 
0

>  <SCORE.INTRA.REPUL.0>  (1) 
0

>  <SCORE.INTRA.VDW>  (1) 
1.33225

>  <SCORE.INTRA.VDW.0>  (1) 
-2.47855

>  <SCORE.INTRA.norm>  (1) 
0.0532609

>  <SCORE.RESTR>  (1) 
0

>  <SCORE.RESTR.CAVITY>  (1) 
0

>  <SCORE.RESTR.norm>  (1) 
0

>  <SCORE.SYSTEM>  (1) 
0

>  <SCORE.SYSTEM.CONST>  (1) 
0

>  <SCORE.SYSTEM.DIHEDRAL>  (1) 
0

>  <SCORE.SYSTEM.norm>  (1) 
0

>  <SCORE.heavy>  (1) 
17

>  <SCORE.norm>  (1) 
-1.02195

>  <TETHERED ATOMS>  (1) 
10,11,15,9,12,14,16,13,6,7,17,8,5

>  <skeledock_score>  (1) 
94

$$$$
