Cc1n[nH]cc1CNc1ccc(S(N)(=O)=O)cc1
     RDKit          3D

 32 33  0  0  0  0  0  0  0  0999 V2000
  -23.9866   12.7684   27.1602 C   0  0  0  0  0  0  0  0  0  0  0  0
  -23.1942   12.0966   26.0884 C   0  0  0  0  0  0  0  0  0  0  0  0
  -23.7429   11.4260   25.0565 N   0  0  0  0  0  0  0  0  0  0  0  0
  -22.7534   11.0007   24.2871 N   0  0  0  0  0  0  0  0  0  0  0  0
  -21.5734   11.3914   24.8018 C   0  0  0  0  0  0  0  0  0  0  0  0
  -21.8152   12.0842   25.9721 C   0  0  0  0  0  0  0  0  0  0  0  0
  -20.8184   12.8189   26.8246 C   0  0  0  0  0  0  0  0  0  0  0  0
  -19.5270   12.9154   26.1457 N   0  0  0  0  0  0  0  0  0  0  0  0
  -18.6572   14.0409   26.3306 C   0  0  0  0  0  0  0  0  0  0  0  0
  -18.7783   15.1886   25.5311 C   0  0  0  0  0  0  0  0  0  0  0  0
  -17.9395   16.2863   25.7439 C   0  0  0  0  0  0  0  0  0  0  0  0
  -16.9721   16.2489   26.7568 C   0  0  0  0  0  0  0  0  0  0  0  0
  -15.9343   17.6412   27.0452 S   0  0  0  0  0  0  0  0  0  0  0  0
  -15.1866   18.1169   25.5612 N   0  0  0  0  0  0  0  0  0  0  0  0
  -16.7517   18.7801   27.5882 O   0  0  0  0  0  0  0  0  0  0  0  0
  -14.8737   17.2873   28.0497 O   0  0  0  0  0  0  0  0  0  0  0  0
  -16.8478   15.1025   27.5521 C   0  0  0  0  0  0  0  0  0  0  0  0
  -17.6763   13.9997   27.3306 C   0  0  0  0  0  0  0  0  0  0  0  0
  -23.7618   13.8555   27.1653 H   0  0  0  0  0  0  0  0  0  0  0  0
  -23.7234   12.3335   28.1469 H   0  0  0  0  0  0  0  0  0  0  0  0
  -25.0730   12.6252   26.9815 H   0  0  0  0  0  0  0  0  0  0  0  0
  -22.8877   10.4592   23.4050 H   0  0  0  0  0  0  0  0  0  0  0  0
  -20.6109   11.2019   24.3448 H   0  0  0  0  0  0  0  0  0  0  0  0
  -21.2067   13.8417   27.0161 H   0  0  0  0  0  0  0  0  0  0  0  0
  -20.7026   12.3157   27.8064 H   0  0  0  0  0  0  0  0  0  0  0  0
  -19.1080   12.0237   25.7959 H   0  0  0  0  0  0  0  0  0  0  0  0
  -19.5134   15.2347   24.7388 H   0  0  0  0  0  0  0  0  0  0  0  0
  -18.0503   17.1665   25.1236 H   0  0  0  0  0  0  0  0  0  0  0  0
  -14.4583   17.4003   25.3433 H   0  0  0  0  0  0  0  0  0  0  0  0
  -15.9141   18.0440   24.8152 H   0  0  0  0  0  0  0  0  0  0  0  0
  -16.1098   15.0620   28.3432 H   0  0  0  0  0  0  0  0  0  0  0  0
  -17.5718   13.1213   27.9551 H   0  0  0  0  0  0  0  0  0  0  0  0
  1  2  1  0
  2  3  2  0
  3  4  1  0
  4  5  1  0
  5  6  2  0
  6  7  1  0
  7  8  1  0
  8  9  1  0
  9 10  2  0
 10 11  1  0
 11 12  2  0
 12 13  1  0
 13 14  1  0
 13 15  2  0
 13 16  2  0
 12 17  1  0
 17 18  2  0
  6  2  1  0
 18  9  1  0
  1 19  1  0
  1 20  1  0
  1 21  1  0
  4 22  1  0
  5 23  1  0
  7 24  1  0
  7 25  1  0
  8 26  1  0
 10 27  1  0
 11 28  1  0
 14 29  1  0
 14 30  1  0
 17 31  1  0
 18 32  1  0
M  END
>  <CHROM.1>  (1) 
-161.28136515,147.72385935,-87.65274987,-52.41522192,-73.07587098,-0.47563772
-0.39503320,-2.18808141

>  <Name>  (1) 
Cc1n[nH]cc1CNc1ccc(S(N)(=O)=O)cc1

>  <RI>  (1) 
1.55488e+07

>  <Rbt.Current_Directory>  (1) 
/data/out

>  <Rbt.Executable>  (1) 
rbdock ($Id: //depot/dev/client3/rdock/2013.1/src/exe/rbdock.cxx#4 $)

>  <Rbt.Library>  (1) 
libRbt.so (2013.1, Build901 2013/11/27)

>  <Rbt.Parameter_File>  (1) 
/python_libraries/phenodiscovery/docking/templates/RDOCK_TETHER.conf

>  <Rbt.Receptor>  (1) 
/data/out/rdock-opt/grid/rdock-grid.prm

>  <SCORE>  (1) 
-15.9514

>  <SCORE.INTER>  (1) 
-16.0672

>  <SCORE.INTER.CONST>  (1) 
1

>  <SCORE.INTER.POLAR>  (1) 
-1.94935

>  <SCORE.INTER.REPUL>  (1) 
0.04636

>  <SCORE.INTER.ROT>  (1) 
5

>  <SCORE.INTER.VDW>  (1) 
-20.0712

>  <SCORE.INTER.norm>  (1) 
-0.892623

>  <SCORE.INTRA>  (1) 
0.115771

>  <SCORE.INTRA.DIHEDRAL>  (1) 
-0.0824031

>  <SCORE.INTRA.DIHEDRAL.0>  (1) 
3.99425

>  <SCORE.INTRA.POLAR>  (1) 
0

>  <SCORE.INTRA.POLAR.0>  (1) 
0

>  <SCORE.INTRA.REPUL>  (1) 
0

>  <SCORE.INTRA.REPUL.0>  (1) 
0

>  <SCORE.INTRA.VDW>  (1) 
0.156972

>  <SCORE.INTRA.VDW.0>  (1) 
-2.77913

>  <SCORE.INTRA.norm>  (1) 
0.0064317

>  <SCORE.RESTR>  (1) 
0

>  <SCORE.RESTR.CAVITY>  (1) 
0

>  <SCORE.RESTR.norm>  (1) 
0

>  <SCORE.SYSTEM>  (1) 
0

>  <SCORE.SYSTEM.CONST>  (1) 
0

>  <SCORE.SYSTEM.DIHEDRAL>  (1) 
0

>  <SCORE.SYSTEM.norm>  (1) 
0

>  <SCORE.heavy>  (1) 
18

>  <SCORE.norm>  (1) 
-0.886191

>  <TETHERED ATOMS>  (1) 
8,12,9,6,7,11,17,10,18,4,1,5,3,2

>  <skeledock_score>  (1) 
100

$$$$
