Cc1nc2ccccc2n1CCC(=O)NC(CO)CO
     RDKit          3D

 39 40  0  0  0  0  0  0  0  0999 V2000
  -18.2567   12.9963   23.5373 C   0  0  0  0  0  0  0  0  0  0  0  0
  -19.3985   12.8704   24.4964 C   0  0  0  0  0  0  0  0  0  0  0  0
  -20.6007   12.3515   24.1343 N   0  0  0  0  0  0  0  0  0  0  0  0
  -21.3223   12.4408   25.2662 C   0  0  0  0  0  0  0  0  0  0  0  0
  -22.6463   12.0539   25.4569 C   0  0  0  0  0  0  0  0  0  0  0  0
  -23.2110   12.2580   26.7294 C   0  0  0  0  0  0  0  0  0  0  0  0
  -22.4465   12.8391   27.7670 C   0  0  0  0  0  0  0  0  0  0  0  0
  -21.1093   13.2187   27.5424 C   0  0  0  0  0  0  0  0  0  0  0  0
  -20.5796   12.9968   26.2688 C   0  0  0  0  0  0  0  0  0  0  0  0
  -19.3485   13.2633   25.7981 N   0  0  0  0  0  0  0  0  0  0  0  0
  -18.2232   13.8887   26.4968 C   0  0  0  0  0  0  0  0  0  0  0  0
  -18.4131   15.4076   26.5712 C   0  0  0  0  0  0  0  0  0  0  0  0
  -17.1031   16.0962   26.8211 C   0  0  0  0  0  0  0  0  0  0  0  0
  -16.5488   15.9835   27.9483 O   0  0  0  0  0  0  0  0  0  0  0  0
  -16.4918   16.8786   25.7850 N   0  0  0  0  0  0  0  0  0  0  0  0
  -15.2152   17.5777   25.9598 C   0  0  0  0  0  0  0  0  0  0  0  0
  -14.9109   18.4247   24.7135 C   0  0  0  0  0  0  0  0  0  0  0  0
  -15.9353   19.3565   24.4913 O   0  0  0  0  0  0  0  0  0  0  0  0
  -15.2850   18.4517   27.2227 C   0  0  0  0  0  0  0  0  0  0  0  0
  -14.7635   17.7720   28.3334 O   0  0  0  0  0  0  0  0  0  0  0  0
  -18.5571   12.6308   22.5328 H   0  0  0  0  0  0  0  0  0  0  0  0
  -17.3985   12.3902   23.8943 H   0  0  0  0  0  0  0  0  0  0  0  0
  -17.9501   14.0593   23.4537 H   0  0  0  0  0  0  0  0  0  0  0  0
  -23.2237   11.6151   24.6534 H   0  0  0  0  0  0  0  0  0  0  0  0
  -24.2379   11.9709   26.9140 H   0  0  0  0  0  0  0  0  0  0  0  0
  -22.8924   12.9944   28.7408 H   0  0  0  0  0  0  0  0  0  0  0  0
  -20.5218   13.6678   28.3319 H   0  0  0  0  0  0  0  0  0  0  0  0
  -18.1287   13.4662   27.5199 H   0  0  0  0  0  0  0  0  0  0  0  0
  -17.2791   13.6472   25.9612 H   0  0  0  0  0  0  0  0  0  0  0  0
  -18.8474   15.7794   25.6174 H   0  0  0  0  0  0  0  0  0  0  0  0
  -19.1227   15.6551   27.3894 H   0  0  0  0  0  0  0  0  0  0  0  0
  -16.9181   16.8588   24.8305 H   0  0  0  0  0  0  0  0  0  0  0  0
  -14.3911   16.8435   26.1003 H   0  0  0  0  0  0  0  0  0  0  0  0
  -13.9279   18.9395   24.8216 H   0  0  0  0  0  0  0  0  0  0  0  0
  -14.8480   17.7655   23.8218 H   0  0  0  0  0  0  0  0  0  0  0  0
  -15.7762   19.7498   23.5938 H   0  0  0  0  0  0  0  0  0  0  0  0
  -16.3415   18.7462   27.4196 H   0  0  0  0  0  0  0  0  0  0  0  0
  -14.7019   19.3852   27.0693 H   0  0  0  0  0  0  0  0  0  0  0  0
  -15.3288   16.9666   28.4651 H   0  0  0  0  0  0  0  0  0  0  0  0
  1  2  1  0
  2  3  2  0
  3  4  1  0
  4  5  2  0
  5  6  1  0
  6  7  2  0
  7  8  1  0
  8  9  2  0
  9 10  1  0
 10 11  1  0
 11 12  1  0
 12 13  1  0
 13 14  2  0
 13 15  1  0
 15 16  1  0
 16 17  1  0
 17 18  1  0
 16 19  1  0
 19 20  1  0
 10  2  1  0
  9  4  1  0
  1 21  1  0
  1 22  1  0
  1 23  1  0
  5 24  1  0
  6 25  1  0
  7 26  1  0
  8 27  1  0
 11 28  1  0
 11 29  1  0
 12 30  1  0
 12 31  1  0
 15 32  1  0
 16 33  1  0
 17 34  1  0
 17 35  1  0
 18 36  1  0
 19 37  1  0
 19 38  1  0
 20 39  1  0
M  END
>  <CHROM.1>  (1) 
98.87369393,-159.73814757,-70.34897689,-174.68190984,58.80341014,-169.50213453
94.49780911,-61.34788546,-2.77991242,0.52096479,1.10527730

>  <Name>  (1) 
Cc1nc2ccccc2n1CCC(=O)NC(CO)CO

>  <RI>  (1) 
2.92681e+07

>  <Rbt.Current_Directory>  (1) 
/data/out

>  <Rbt.Executable>  (1) 
rbdock ($Id: //depot/dev/client3/rdock/2013.1/src/exe/rbdock.cxx#4 $)

>  <Rbt.Library>  (1) 
libRbt.so (2013.1, Build901 2013/11/27)

>  <Rbt.Parameter_File>  (1) 
/python_libraries/phenodiscovery/docking/templates/RDOCK_TETHER.conf

>  <Rbt.Receptor>  (1) 
/data/out/rdock-opt/grid/rdock-grid.prm

>  <SCORE>  (1) 
-19.3794

>  <SCORE.INTER>  (1) 
-18.1928

>  <SCORE.INTER.CONST>  (1) 
1

>  <SCORE.INTER.POLAR>  (1) 
-2.6822

>  <SCORE.INTER.REPUL>  (1) 
0.0677888

>  <SCORE.INTER.ROT>  (1) 
6

>  <SCORE.INTER.VDW>  (1) 
-20.8123

>  <SCORE.INTER.norm>  (1) 
-0.909642

>  <SCORE.INTRA>  (1) 
-1.18658

>  <SCORE.INTRA.DIHEDRAL>  (1) 
2.0161

>  <SCORE.INTRA.DIHEDRAL.0>  (1) 
9.36207

>  <SCORE.INTRA.POLAR>  (1) 
-0.992514

>  <SCORE.INTRA.POLAR.0>  (1) 
0

>  <SCORE.INTRA.REPUL>  (1) 
0

>  <SCORE.INTRA.REPUL.0>  (1) 
0

>  <SCORE.INTRA.VDW>  (1) 
1.17992

>  <SCORE.INTRA.VDW.0>  (1) 
-1.95768

>  <SCORE.INTRA.norm>  (1) 
-0.059329

>  <SCORE.RESTR>  (1) 
0

>  <SCORE.RESTR.CAVITY>  (1) 
0

>  <SCORE.RESTR.norm>  (1) 
0

>  <SCORE.SYSTEM>  (1) 
0

>  <SCORE.SYSTEM.CONST>  (1) 
0

>  <SCORE.SYSTEM.DIHEDRAL>  (1) 
0

>  <SCORE.SYSTEM.norm>  (1) 
0

>  <SCORE.heavy>  (1) 
20

>  <SCORE.norm>  (1) 
-0.968971

>  <TETHERED ATOMS>  (1) 
10,13,11,14,15,12,9,6,5,2,4,7,1,3,8

>  <skeledock_score>  (1) 
115

$$$$
