Cn1cc(NC(=O)c2cc(CO)on2)cn1
     RDKit          3D

 26 27  0  0  0  0  0  0  0  0999 V2000
  -19.3040   12.9926   27.6915 C   0  0  0  0  0  0  0  0  0  0  0  0
  -18.8755   14.0425   26.7793 N   0  0  0  0  0  0  0  0  0  0  0  0
  -17.9903   15.0171   27.0641 C   0  0  0  0  0  0  0  0  0  0  0  0
  -17.8638   15.7914   25.9300 C   0  0  0  0  0  0  0  0  0  0  0  0
  -17.0496   16.9471   25.7094 N   0  0  0  0  0  0  0  0  0  0  0  0
  -16.1398   17.5420   26.6481 C   0  0  0  0  0  0  0  0  0  0  0  0
  -15.9341   17.0284   27.7799 O   0  0  0  0  0  0  0  0  0  0  0  0
  -15.4622   18.7887   26.2784 C   0  0  0  0  0  0  0  0  0  0  0  0
  -15.0264   19.1096   25.0097 C   0  0  0  0  0  0  0  0  0  0  0  0
  -14.6417   20.4214   25.1265 C   0  0  0  0  0  0  0  0  0  0  0  0
  -14.1485   21.2910   24.0166 C   0  0  0  0  0  0  0  0  0  0  0  0
  -14.1590   20.5814   22.8087 O   0  0  0  0  0  0  0  0  0  0  0  0
  -14.8355   20.8165   26.3640 O   0  0  0  0  0  0  0  0  0  0  0  0
  -15.3300   19.8551   27.0913 N   0  0  0  0  0  0  0  0  0  0  0  0
  -18.7089   15.2348   24.9922 C   0  0  0  0  0  0  0  0  0  0  0  0
  -19.3149   14.1630   25.5351 N   0  0  0  0  0  0  0  0  0  0  0  0
  -20.0393   12.3258   27.1931 H   0  0  0  0  0  0  0  0  0  0  0  0
  -18.4265   12.3893   28.0061 H   0  0  0  0  0  0  0  0  0  0  0  0
  -19.7783   13.4459   28.5872 H   0  0  0  0  0  0  0  0  0  0  0  0
  -17.4939   15.1365   28.0169 H   0  0  0  0  0  0  0  0  0  0  0  0
  -17.1710   17.4126   24.7823 H   0  0  0  0  0  0  0  0  0  0  0  0
  -15.0255   18.4969   24.1176 H   0  0  0  0  0  0  0  0  0  0  0  0
  -13.1090   21.6147   24.2351 H   0  0  0  0  0  0  0  0  0  0  0  0
  -14.7814   22.2035   23.9396 H   0  0  0  0  0  0  0  0  0  0  0  0
  -15.1080   20.3608   22.6171 H   0  0  0  0  0  0  0  0  0  0  0  0
  -18.8703   15.5822   23.9805 H   0  0  0  0  0  0  0  0  0  0  0  0
  1  2  1  0
  2  3  1  0
  3  4  2  0
  4  5  1  0
  5  6  1  0
  6  7  2  0
  6  8  1  0
  8  9  1  0
  9 10  2  0
 10 11  1  0
 11 12  1  0
 10 13  1  0
 13 14  1  0
  4 15  1  0
 15 16  2  0
 16  2  1  0
 14  8  2  0
  1 17  1  0
  1 18  1  0
  1 19  1  0
  3 20  1  0
  5 21  1  0
  9 22  1  0
 11 23  1  0
 11 24  1  0
 12 25  1  0
 15 26  1  0
M  END
>  <CHROM.1>  (1) 
1.61842429,-35.89202922,1.30644716,63.62738942,2.74414565,0.93037624,1.90571060

>  <Name>  (1) 
Cn1cc(NC(=O)c2cc(CO)on2)cn1

>  <RI>  (1) 
4.12823e+07

>  <Rbt.Current_Directory>  (1) 
/data/out

>  <Rbt.Executable>  (1) 
rbdock ($Id: //depot/dev/client3/rdock/2013.1/src/exe/rbdock.cxx#4 $)

>  <Rbt.Library>  (1) 
libRbt.so (2013.1, Build901 2013/11/27)

>  <Rbt.Parameter_File>  (1) 
/python_libraries/phenodiscovery/docking/templates/RDOCK_TETHER.conf

>  <Rbt.Receptor>  (1) 
/data/out/rdock-opt/grid/rdock-grid.prm

>  <SCORE>  (1) 
-16.3467

>  <SCORE.INTER>  (1) 
-15.8036

>  <SCORE.INTER.CONST>  (1) 
1

>  <SCORE.INTER.POLAR>  (1) 
-2.37472

>  <SCORE.INTER.REPUL>  (1) 
0.000522761

>  <SCORE.INTER.ROT>  (1) 
3

>  <SCORE.INTER.VDW>  (1) 
-16.1322

>  <SCORE.INTER.norm>  (1) 
-0.987725

>  <SCORE.INTRA>  (1) 
-0.54306

>  <SCORE.INTRA.DIHEDRAL>  (1) 
-1.11887

>  <SCORE.INTRA.DIHEDRAL.0>  (1) 
6.26008

>  <SCORE.INTRA.POLAR>  (1) 
0

>  <SCORE.INTRA.POLAR.0>  (1) 
0

>  <SCORE.INTRA.REPUL>  (1) 
0

>  <SCORE.INTRA.REPUL.0>  (1) 
0

>  <SCORE.INTRA.VDW>  (1) 
0.0163765

>  <SCORE.INTRA.VDW.0>  (1) 
-1.31073

>  <SCORE.INTRA.norm>  (1) 
-0.0339413

>  <SCORE.RESTR>  (1) 
0

>  <SCORE.RESTR.CAVITY>  (1) 
0

>  <SCORE.RESTR.norm>  (1) 
0

>  <SCORE.SYSTEM>  (1) 
0

>  <SCORE.SYSTEM.CONST>  (1) 
0

>  <SCORE.SYSTEM.DIHEDRAL>  (1) 
0

>  <SCORE.SYSTEM.norm>  (1) 
0

>  <SCORE.heavy>  (1) 
16

>  <SCORE.norm>  (1) 
-1.02167

>  <TETHERED ATOMS>  (1) 
5,4,9,8,14,7,10,13,11,6,15,2,1,16,3

>  <skeledock_score>  (1) 
115

$$$$
