CCn1cc(NC(=O)[C@@H]2C[C@H](O)C2)cn1
     RDKit          3D

 30 31  0  0  0  0  0  0  0  0999 V2000
  -20.5960   13.3799   27.8516 C   0  0  0  0  0  0  0  0  0  0  0  0
  -19.1164   13.0518   27.6840 C   0  0  0  0  0  0  0  0  0  0  0  0
  -18.4632   14.0558   26.8485 N   0  0  0  0  0  0  0  0  0  0  0  0
  -17.6372   15.0321   27.2766 C   0  0  0  0  0  0  0  0  0  0  0  0
  -17.2516   15.7582   26.1663 C   0  0  0  0  0  0  0  0  0  0  0  0
  -16.4368   16.9377   26.0997 N   0  0  0  0  0  0  0  0  0  0  0  0
  -15.8447   17.6039   27.2260 C   0  0  0  0  0  0  0  0  0  0  0  0
  -15.9538   17.1245   28.3868 O   0  0  0  0  0  0  0  0  0  0  0  0
  -15.1447   18.9249   27.0125 C   0  0  0  0  0  0  0  0  0  0  0  0
  -15.9343   19.9045   26.1412 C   0  0  0  0  0  0  0  0  0  0  0  0
  -14.7860   19.9423   25.1414 C   0  0  0  0  0  0  0  0  0  0  0  0
  -15.1688   19.4237   23.8964 O   0  0  0  0  0  0  0  0  0  0  0  0
  -14.0162   18.9243   25.9773 C   0  0  0  0  0  0  0  0  0  0  0  0
  -17.8906   15.1726   25.0929 C   0  0  0  0  0  0  0  0  0  0  0  0
  -18.6190   14.1298   25.5344 N   0  0  0  0  0  0  0  0  0  0  0  0
  -21.1074   13.3677   26.8656 H   0  0  0  0  0  0  0  0  0  0  0  0
  -20.7132   14.3837   28.3126 H   0  0  0  0  0  0  0  0  0  0  0  0
  -21.0735   12.6243   28.5101 H   0  0  0  0  0  0  0  0  0  0  0  0
  -19.0083   12.0525   27.2105 H   0  0  0  0  0  0  0  0  0  0  0  0
  -18.6373   13.0146   28.6869 H   0  0  0  0  0  0  0  0  0  0  0  0
  -17.3754   15.2078   28.3108 H   0  0  0  0  0  0  0  0  0  0  0  0
  -16.2461   17.3264   25.1487 H   0  0  0  0  0  0  0  0  0  0  0  0
  -14.8276   19.3843   27.9747 H   0  0  0  0  0  0  0  0  0  0  0  0
  -16.8681   19.4796   25.7084 H   0  0  0  0  0  0  0  0  0  0  0  0
  -16.0882   20.8847   26.6428 H   0  0  0  0  0  0  0  0  0  0  0  0
  -14.2940   20.9398   25.0745 H   0  0  0  0  0  0  0  0  0  0  0  0
  -15.7441   20.1161   23.4795 H   0  0  0  0  0  0  0  0  0  0  0  0
  -13.8703   17.9574   25.4473 H   0  0  0  0  0  0  0  0  0  0  0  0
  -13.0720   19.3473   26.3843 H   0  0  0  0  0  0  0  0  0  0  0  0
  -17.8358   15.4871   24.0592 H   0  0  0  0  0  0  0  0  0  0  0  0
  1  2  1  0
  2  3  1  0
  3  4  1  0
  4  5  2  0
  5  6  1  0
  6  7  1  0
  7  8  2  0
  7  9  1  0
  9 10  1  0
 10 11  1  0
 11 12  1  0
 11 13  1  0
  5 14  1  0
 14 15  2  0
 15  3  1  0
 13  9  1  0
  1 16  1  0
  1 17  1  0
  1 18  1  0
  2 19  1  0
  2 20  1  0
  4 21  1  0
  6 22  1  0
  9 23  1  0
 10 24  1  0
 10 25  1  0
 11 26  1  0
 12 27  1  0
 13 28  1  0
 13 29  1  0
 14 30  1  0
M  END
>  <CHROM.1>  (1) 
105.14925973,0.22540740,45.89035095,74.12837631,-0.19631706,0.91228112,1.68552976

>  <Name>  (1) 
CCn1cc(NC(=O)[C@@H]2C[C@H](O)C2)cn1

>  <RI>  (1) 
3.22274e+07

>  <Rbt.Current_Directory>  (1) 
/data/out

>  <Rbt.Executable>  (1) 
rbdock ($Id: //depot/dev/client3/rdock/2013.1/src/exe/rbdock.cxx#4 $)

>  <Rbt.Library>  (1) 
libRbt.so (2013.1, Build901 2013/11/27)

>  <Rbt.Parameter_File>  (1) 
/python_libraries/phenodiscovery/docking/templates/RDOCK_TETHER.conf

>  <Rbt.Receptor>  (1) 
/data/out/rdock-opt/grid/rdock-grid.prm

>  <SCORE>  (1) 
-16.7474

>  <SCORE.INTER>  (1) 
-15.0861

>  <SCORE.INTER.CONST>  (1) 
1

>  <SCORE.INTER.POLAR>  (1) 
-1.97482

>  <SCORE.INTER.REPUL>  (1) 
0

>  <SCORE.INTER.ROT>  (1) 
3

>  <SCORE.INTER.VDW>  (1) 
-16.7718

>  <SCORE.INTER.norm>  (1) 
-1.00574

>  <SCORE.INTRA>  (1) 
-1.66128

>  <SCORE.INTRA.DIHEDRAL>  (1) 
-3.40029

>  <SCORE.INTRA.DIHEDRAL.0>  (1) 
7.21343

>  <SCORE.INTRA.POLAR>  (1) 
0

>  <SCORE.INTRA.POLAR.0>  (1) 
0

>  <SCORE.INTRA.REPUL>  (1) 
0

>  <SCORE.INTRA.REPUL.0>  (1) 
0

>  <SCORE.INTRA.VDW>  (1) 
0.0388704

>  <SCORE.INTRA.VDW.0>  (1) 
-1.76051

>  <SCORE.INTRA.norm>  (1) 
-0.110752

>  <SCORE.RESTR>  (1) 
0

>  <SCORE.RESTR.CAVITY>  (1) 
0

>  <SCORE.RESTR.norm>  (1) 
0

>  <SCORE.SYSTEM>  (1) 
0

>  <SCORE.SYSTEM.CONST>  (1) 
0

>  <SCORE.SYSTEM.DIHEDRAL>  (1) 
0

>  <SCORE.SYSTEM.norm>  (1) 
0

>  <SCORE.heavy>  (1) 
15

>  <SCORE.norm>  (1) 
-1.11649

>  <TETHERED ATOMS>  (1) 
8,7,6,5,11,9,13,10,15,2,1,3,4,14

>  <skeledock_score>  (1) 
105

$$$$
