CS(=O)(=O)c1cccc(NCc2cc[nH]n2)c1
     RDKit          3D

 30 31  0  0  0  0  0  0  0  0999 V2000
  -26.0049   13.3582   28.4748 C   0  0  0  0  0  0  0  0  0  0  0  0
  -25.1572   14.0978   27.0980 S   0  0  0  0  0  0  0  0  0  0  0  0
  -24.7790   15.5118   27.4400 O   0  0  0  0  0  0  0  0  0  0  0  0
  -26.0656   14.1179   25.9006 O   0  0  0  0  0  0  0  0  0  0  0  0
  -23.7090   13.1658   26.7346 C   0  0  0  0  0  0  0  0  0  0  0  0
  -23.7149   12.2309   25.6893 C   0  0  0  0  0  0  0  0  0  0  0  0
  -22.5688   11.4834   25.4100 C   0  0  0  0  0  0  0  0  0  0  0  0
  -21.4211   11.6479   26.1861 C   0  0  0  0  0  0  0  0  0  0  0  0
  -21.4039   12.5735   27.2358 C   0  0  0  0  0  0  0  0  0  0  0  0
  -20.2425   12.6581   28.0692 N   0  0  0  0  0  0  0  0  0  0  0  0
  -18.8884   12.7118   27.5337 C   0  0  0  0  0  0  0  0  0  0  0  0
  -18.8077   13.6786   26.3924 C   0  0  0  0  0  0  0  0  0  0  0  0
  -18.4159   13.3917   25.0964 C   0  0  0  0  0  0  0  0  0  0  0  0
  -18.4672   14.6082   24.4501 C   0  0  0  0  0  0  0  0  0  0  0  0
  -18.8580   15.5475   25.3295 N   0  0  0  0  0  0  0  0  0  0  0  0
  -19.0653   14.9941   26.5127 N   0  0  0  0  0  0  0  0  0  0  0  0
  -22.5491   13.3385   27.5061 C   0  0  0  0  0  0  0  0  0  0  0  0
  -26.2890   12.3165   28.2190 H   0  0  0  0  0  0  0  0  0  0  0  0
  -25.3367   13.3504   29.3606 H   0  0  0  0  0  0  0  0  0  0  0  0
  -26.9185   13.9433   28.7071 H   0  0  0  0  0  0  0  0  0  0  0  0
  -24.6050   12.0813   25.0917 H   0  0  0  0  0  0  0  0  0  0  0  0
  -22.5760   10.7642   24.6013 H   0  0  0  0  0  0  0  0  0  0  0  0
  -20.5445   11.0479   25.9754 H   0  0  0  0  0  0  0  0  0  0  0  0
  -20.3465   12.4075   29.0788 H   0  0  0  0  0  0  0  0  0  0  0  0
  -18.1718   12.9941   28.3340 H   0  0  0  0  0  0  0  0  0  0  0  0
  -18.6045   11.7046   27.1607 H   0  0  0  0  0  0  0  0  0  0  0  0
  -18.1306   12.4332   24.6835 H   0  0  0  0  0  0  0  0  0  0  0  0
  -18.2293   14.7967   23.4116 H   0  0  0  0  0  0  0  0  0  0  0  0
  -18.9825   16.5639   25.1269 H   0  0  0  0  0  0  0  0  0  0  0  0
  -22.5469   14.0372   28.3331 H   0  0  0  0  0  0  0  0  0  0  0  0
  1  2  1  0
  2  3  2  0
  2  4  2  0
  2  5  1  0
  5  6  2  0
  6  7  1  0
  7  8  2  0
  8  9  1  0
  9 10  1  0
 10 11  1  0
 11 12  1  0
 12 13  1  0
 13 14  2  0
 14 15  1  0
 15 16  1  0
  9 17  2  0
 17  5  1  0
 16 12  2  0
  1 18  1  0
  1 19  1  0
  1 20  1  0
  6 21  1  0
  7 22  1  0
  8 23  1  0
 10 24  1  0
 11 25  1  0
 11 26  1  0
 13 27  1  0
 14 28  1  0
 15 29  1  0
 17 30  1  0
M  END
>  <CHROM.1>  (1) 
99.23282811,46.79619061,45.24596235,-121.16061097,-2.80451553,-0.34903395
-1.12646477

>  <Name>  (1) 
CS(=O)(=O)c1cccc(NCc2cc[nH]n2)c1

>  <RI>  (1) 
2.3387e+07

>  <Rbt.Current_Directory>  (1) 
/data/out

>  <Rbt.Executable>  (1) 
rbdock ($Id: //depot/dev/client3/rdock/2013.1/src/exe/rbdock.cxx#4 $)

>  <Rbt.Library>  (1) 
libRbt.so (2013.1, Build901 2013/11/27)

>  <Rbt.Parameter_File>  (1) 
/python_libraries/phenodiscovery/docking/templates/RDOCK_TETHER.conf

>  <Rbt.Receptor>  (1) 
/data/out/rdock-opt/grid/rdock-grid.prm

>  <SCORE>  (1) 
-16.142

>  <SCORE.INTER>  (1) 
-16.1389

>  <SCORE.INTER.CONST>  (1) 
1

>  <SCORE.INTER.POLAR>  (1) 
-1.1948

>  <SCORE.INTER.REPUL>  (1) 
0

>  <SCORE.INTER.ROT>  (1) 
4

>  <SCORE.INTER.VDW>  (1) 
-21.4766

>  <SCORE.INTER.norm>  (1) 
-0.94935

>  <SCORE.INTRA>  (1) 
-0.00306614

>  <SCORE.INTRA.DIHEDRAL>  (1) 
-0.989679

>  <SCORE.INTRA.DIHEDRAL.0>  (1) 
13.9231

>  <SCORE.INTRA.POLAR>  (1) 
0

>  <SCORE.INTRA.POLAR.0>  (1) 
0

>  <SCORE.INTRA.REPUL>  (1) 
0

>  <SCORE.INTRA.REPUL.0>  (1) 
0

>  <SCORE.INTRA.VDW>  (1) 
0.491774

>  <SCORE.INTRA.VDW.0>  (1) 
-3.22273

>  <SCORE.INTRA.norm>  (1) 
-0.000180361

>  <SCORE.RESTR>  (1) 
0

>  <SCORE.RESTR.CAVITY>  (1) 
0

>  <SCORE.RESTR.norm>  (1) 
0

>  <SCORE.SYSTEM>  (1) 
0

>  <SCORE.SYSTEM.CONST>  (1) 
0

>  <SCORE.SYSTEM.DIHEDRAL>  (1) 
0

>  <SCORE.SYSTEM.norm>  (1) 
0

>  <SCORE.heavy>  (1) 
17

>  <SCORE.norm>  (1) 
-0.94953

>  <TETHERED ATOMS>  (1) 
10,11,15,9,12,14,16,13,6,7,17,8,5

>  <skeledock_score>  (1) 
94

$$$$
