N#CCNC(=O)c1ccc2c(c1)NC(=O)C2
     RDKit          3D

 25 26  0  0  0  0  0  0  0  0999 V2000
  -14.8250    9.8459   22.1068 N   0  0  0  0  0  0  0  0  0  0  0  0
  -15.7534   10.5212   22.2596 C   0  0  0  0  0  0  0  0  0  0  0  0
  -16.9248   11.4161   22.4536 C   0  0  0  0  0  0  0  0  0  0  0  0
  -17.3145   11.3900   23.7790 N   0  0  0  0  0  0  0  0  0  0  0  0
  -17.6950   11.3645   25.0730 C   0  0  0  0  0  0  0  0  0  0  0  0
  -18.1525   10.3363   25.6874 O   0  0  0  0  0  0  0  0  0  0  0  0
  -17.6327   12.5404   25.9869 C   0  0  0  0  0  0  0  0  0  0  0  0
  -17.5794   12.3487   27.3237 C   0  0  0  0  0  0  0  0  0  0  0  0
  -17.5504   13.4082   28.2365 C   0  0  0  0  0  0  0  0  0  0  0  0
  -17.5785   14.6886   27.6972 C   0  0  0  0  0  0  0  0  0  0  0  0
  -17.6307   14.8825   26.3385 C   0  0  0  0  0  0  0  0  0  0  0  0
  -17.6589   13.8077   25.4612 C   0  0  0  0  0  0  0  0  0  0  0  0
  -17.6296   16.3000   26.0653 N   0  0  0  0  0  0  0  0  0  0  0  0
  -17.5733   16.9613   27.3218 C   0  0  0  0  0  0  0  0  0  0  0  0
  -17.5216   18.2329   27.4252 O   0  0  0  0  0  0  0  0  0  0  0  0
  -17.5824   15.9936   28.4252 C   0  0  0  0  0  0  0  0  0  0  0  0
  -17.7174   10.9372   21.7888 H   0  0  0  0  0  0  0  0  0  0  0  0
  -16.6791   12.4230   22.0216 H   0  0  0  0  0  0  0  0  0  0  0  0
  -17.6169   10.0723   23.6407 H   0  0  0  0  0  0  0  0  0  0  0  0
  -17.5448   11.3690   27.7572 H   0  0  0  0  0  0  0  0  0  0  0  0
  -17.5077   13.2358   29.3016 H   0  0  0  0  0  0  0  0  0  0  0  0
  -17.7047   13.9659   24.3767 H   0  0  0  0  0  0  0  0  0  0  0  0
  -17.6617   16.7007   25.1018 H   0  0  0  0  0  0  0  0  0  0  0  0
  -18.5664   16.0236   28.9581 H   0  0  0  0  0  0  0  0  0  0  0  0
  -16.7218   16.0814   29.0844 H   0  0  0  0  0  0  0  0  0  0  0  0
  1  2  3  0
  2  3  1  0
  3  4  1  0
  4  5  1  0
  5  6  2  0
  5  7  1  0
  7  8  2  0
  8  9  1  0
  9 10  2  0
 10 11  1  0
 11 12  2  0
 11 13  1  0
 13 14  1  0
 14 15  2  0
 14 16  1  0
 12  7  1  0
 16 10  1  0
  3 17  1  0
  3 18  1  0
  4 19  1  0
  8 20  1  0
  9 21  1  0
 12 22  1  0
 13 23  1  0
 16 24  1  0
 16 25  1  0
M  END
>  <CHROM.1>  (1) 
145.98235087,-157.07696443,1.89464048,1.53690685,2.94860496

>  <Name>  (1) 
N#CCNC(=O)c1ccc2c(c1)NC(=O)C2

>  <RI>  (1) 
3.32004e+07

>  <Rbt.Current_Directory>  (1) 
/data/out

>  <Rbt.Executable>  (1) 
rbdock ($Id: //depot/dev/client3/rdock/2013.1/src/exe/rbdock.cxx#4 $)

>  <Rbt.Library>  (1) 
libRbt.so (2013.1, Build901 2013/11/27)

>  <Rbt.Parameter_File>  (1) 
/python_libraries/phenodiscovery/docking/templates/RDOCK_TETHER.conf

>  <Rbt.Receptor>  (1) 
/data/out/rdock-opt/grid/rdock-grid.prm

>  <SCORE>  (1) 
-17.4339

>  <SCORE.INTER>  (1) 
-18.0429

>  <SCORE.INTER.CONST>  (1) 
1

>  <SCORE.INTER.POLAR>  (1) 
-2.15807

>  <SCORE.INTER.REPUL>  (1) 
0

>  <SCORE.INTER.ROT>  (1) 
2

>  <SCORE.INTER.VDW>  (1) 
-18.1055

>  <SCORE.INTER.norm>  (1) 
-1.12768

>  <SCORE.INTRA>  (1) 
0.609016

>  <SCORE.INTRA.DIHEDRAL>  (1) 
-1.41573

>  <SCORE.INTRA.DIHEDRAL.0>  (1) 
4.33855

>  <SCORE.INTRA.POLAR>  (1) 
0

>  <SCORE.INTRA.POLAR.0>  (1) 
0

>  <SCORE.INTRA.REPUL>  (1) 
0

>  <SCORE.INTRA.REPUL.0>  (1) 
0

>  <SCORE.INTRA.VDW>  (1) 
1.31688

>  <SCORE.INTRA.VDW.0>  (1) 
-0.409688

>  <SCORE.INTRA.norm>  (1) 
0.0380635

>  <SCORE.RESTR>  (1) 
0

>  <SCORE.RESTR.CAVITY>  (1) 
0

>  <SCORE.RESTR.norm>  (1) 
0

>  <SCORE.SYSTEM>  (1) 
0

>  <SCORE.SYSTEM.CONST>  (1) 
0

>  <SCORE.SYSTEM.DIHEDRAL>  (1) 
0

>  <SCORE.SYSTEM.norm>  (1) 
0

>  <SCORE.heavy>  (1) 
16

>  <SCORE.norm>  (1) 
-1.08962

>  <TETHERED ATOMS>  (1) 
11,12,7,13,16,10,14,9,15,8

>  <skeledock_score>  (1) 
73

$$$$
