CC(O)CCS(=O)(=O)Cc1nc2ccccc2[nH]1
     RDKit          3D

 34 35  0  0  0  0  0  0  0  0999 V2000
  -15.0960   19.5426   26.7245 C   0  0  0  0  0  0  0  0  0  0  0  0
  -15.0377   18.0117   26.8242 C   0  0  0  0  0  0  0  0  0  0  0  0
  -14.4616   17.6327   28.0489 O   0  0  0  0  0  0  0  0  0  0  0  0
  -16.4252   17.3544   26.6660 C   0  0  0  0  0  0  0  0  0  0  0  0
  -16.3677   15.8245   26.7653 C   0  0  0  0  0  0  0  0  0  0  0  0
  -17.9404   15.1030   26.3910 S   0  0  0  0  0  0  0  0  0  0  0  0
  -18.9682   15.8819   27.1462 O   0  0  0  0  0  0  0  0  0  0  0  0
  -18.2198   15.1992   24.9167 O   0  0  0  0  0  0  0  0  0  0  0  0
  -17.9952   13.3993   26.9159 C   0  0  0  0  0  0  0  0  0  0  0  0
  -19.3443   12.8221   26.6389 C   0  0  0  0  0  0  0  0  0  0  0  0
  -19.6764   12.2532   25.4493 N   0  0  0  0  0  0  0  0  0  0  0  0
  -20.9796   11.9645   25.6156 C   0  0  0  0  0  0  0  0  0  0  0  0
  -21.8504   11.3942   24.6906 C   0  0  0  0  0  0  0  0  0  0  0  0
  -23.1946   11.2269   25.0755 C   0  0  0  0  0  0  0  0  0  0  0  0
  -23.6285   11.6320   26.3593 C   0  0  0  0  0  0  0  0  0  0  0  0
  -22.7216   12.2067   27.2692 C   0  0  0  0  0  0  0  0  0  0  0  0
  -21.4001   12.3521   26.8533 C   0  0  0  0  0  0  0  0  0  0  0  0
  -20.3744   12.8952   27.5179 N   0  0  0  0  0  0  0  0  0  0  0  0
  -14.0969   19.9702   26.9535 H   0  0  0  0  0  0  0  0  0  0  0  0
  -15.8329   19.9552   27.4461 H   0  0  0  0  0  0  0  0  0  0  0  0
  -15.3734   19.8592   25.6978 H   0  0  0  0  0  0  0  0  0  0  0  0
  -14.3723   17.6388   26.0152 H   0  0  0  0  0  0  0  0  0  0  0  0
  -15.0350   17.9948   28.7748 H   0  0  0  0  0  0  0  0  0  0  0  0
  -16.8730   17.6499   25.6918 H   0  0  0  0  0  0  0  0  0  0  0  0
  -17.0854   17.7395   27.4737 H   0  0  0  0  0  0  0  0  0  0  0  0
  -15.6251   15.4245   26.0453 H   0  0  0  0  0  0  0  0  0  0  0  0
  -16.0718   15.5190   27.7914 H   0  0  0  0  0  0  0  0  0  0  0  0
  -17.2162   12.8168   26.3808 H   0  0  0  0  0  0  0  0  0  0  0  0
  -17.7851   13.3516   28.0052 H   0  0  0  0  0  0  0  0  0  0  0  0
  -21.5089   11.0976   23.7073 H   0  0  0  0  0  0  0  0  0  0  0  0
  -23.9011   10.7889   24.3825 H   0  0  0  0  0  0  0  0  0  0  0  0
  -24.6647   11.5020   26.6429 H   0  0  0  0  0  0  0  0  0  0  0  0
  -23.0411   12.5286   28.2518 H   0  0  0  0  0  0  0  0  0  0  0  0
  -20.3772   13.3128   28.4753 H   0  0  0  0  0  0  0  0  0  0  0  0
  1  2  1  0
  2  3  1  0
  2  4  1  0
  4  5  1  0
  5  6  1  0
  6  7  2  0
  6  8  2  0
  6  9  1  0
  9 10  1  0
 10 11  2  0
 11 12  1  0
 12 13  2  0
 13 14  1  0
 14 15  2  0
 15 16  1  0
 16 17  2  0
 17 18  1  0
 18 10  1  0
 17 12  1  0
  1 19  1  0
  1 20  1  0
  1 21  1  0
  2 22  1  0
  3 23  1  0
  4 24  1  0
  4 25  1  0
  5 26  1  0
  5 27  1  0
  9 28  1  0
  9 29  1  0
 13 30  1  0
 14 31  1  0
 15 32  1  0
 16 33  1  0
 18 34  1  0
M  END
>  <CHROM.1>  (1) 
60.53024223,179.98903563,-173.34779851,-46.21483461,177.90375253,87.31805165
0.36373539,0.55695679,1.07473404

>  <Name>  (1) 
CC(O)CCS(=O)(=O)Cc1nc2ccccc2[nH]1

>  <RI>  (1) 
0

>  <Rbt.Current_Directory>  (1) 
/data/out

>  <Rbt.Executable>  (1) 
rbdock ($Id: //depot/dev/client3/rdock/2013.1/src/exe/rbdock.cxx#4 $)

>  <Rbt.Library>  (1) 
libRbt.so (2013.1, Build901 2013/11/27)

>  <Rbt.Parameter_File>  (1) 
/python_libraries/phenodiscovery/docking/templates/RDOCK_TETHER.conf

>  <Rbt.Receptor>  (1) 
/data/out/rdock-opt/grid/rdock-grid.prm

>  <SCORE>  (1) 
-16.0796

>  <SCORE.INTER>  (1) 
-15.6954

>  <SCORE.INTER.CONST>  (1) 
1

>  <SCORE.INTER.POLAR>  (1) 
-1.73609

>  <SCORE.INTER.REPUL>  (1) 
0.00301475

>  <SCORE.INTER.ROT>  (1) 
5

>  <SCORE.INTER.VDW>  (1) 
-20.2078

>  <SCORE.INTER.norm>  (1) 
-0.871968

>  <SCORE.INTRA>  (1) 
-0.384215

>  <SCORE.INTRA.DIHEDRAL>  (1) 
-0.1496

>  <SCORE.INTRA.DIHEDRAL.0>  (1) 
2.10932

>  <SCORE.INTRA.POLAR>  (1) 
0

>  <SCORE.INTRA.POLAR.0>  (1) 
0

>  <SCORE.INTRA.REPUL>  (1) 
0

>  <SCORE.INTRA.REPUL.0>  (1) 
0

>  <SCORE.INTRA.VDW>  (1) 
-0.309415

>  <SCORE.INTRA.VDW.0>  (1) 
-2.80386

>  <SCORE.INTRA.norm>  (1) 
-0.0213453

>  <SCORE.RESTR>  (1) 
0

>  <SCORE.RESTR.CAVITY>  (1) 
0

>  <SCORE.RESTR.norm>  (1) 
0

>  <SCORE.SYSTEM>  (1) 
0

>  <SCORE.SYSTEM.CONST>  (1) 
0

>  <SCORE.SYSTEM.DIHEDRAL>  (1) 
0

>  <SCORE.SYSTEM.norm>  (1) 
0

>  <SCORE.heavy>  (1) 
18

>  <SCORE.norm>  (1) 
-0.893314

>  <TETHERED ATOMS>  (1) 
10,5,6,9,8,7,15,18,16,12,17,13,14,11

>  <skeledock_score>  (1) 
107

$$$$
