CCn1cc(NC(=O)C2(C#N)CCC2)cn1
     RDKit          3D

 30 31  0  0  0  0  0  0  0  0999 V2000
  -20.6448   13.3526   27.8748 C   0  0  0  0  0  0  0  0  0  0  0  0
  -19.1395   13.1827   27.7006 C   0  0  0  0  0  0  0  0  0  0  0  0
  -18.6273   14.1459   26.7294 N   0  0  0  0  0  0  0  0  0  0  0  0
  -17.6690   15.0666   26.9541 C   0  0  0  0  0  0  0  0  0  0  0  0
  -17.5069   15.7848   25.7859 C   0  0  0  0  0  0  0  0  0  0  0  0
  -16.6773   16.9337   25.5588 N   0  0  0  0  0  0  0  0  0  0  0  0
  -15.6720   17.3899   26.4809 C   0  0  0  0  0  0  0  0  0  0  0  0
  -15.4695   16.7617   27.5552 O   0  0  0  0  0  0  0  0  0  0  0  0
  -14.9041   18.6703   26.2369 C   0  0  0  0  0  0  0  0  0  0  0  0
  -14.4849   18.7759   24.8270 C   0  0  0  0  0  0  0  0  0  0  0  0
  -14.1560   18.8585   23.7205 N   0  0  0  0  0  0  0  0  0  0  0  0
  -15.6305   19.9274   26.7294 C   0  0  0  0  0  0  0  0  0  0  0  0
  -14.4628   20.2683   27.6364 C   0  0  0  0  0  0  0  0  0  0  0  0
  -13.7660   18.9875   27.2092 C   0  0  0  0  0  0  0  0  0  0  0  0
  -18.4107   15.2541   24.8886 C   0  0  0  0  0  0  0  0  0  0  0  0
  -19.0773   14.2472   25.4865 N   0  0  0  0  0  0  0  0  0  0  0  0
  -21.0162   12.6325   28.6340 H   0  0  0  0  0  0  0  0  0  0  0  0
  -20.8743   14.3844   28.2158 H   0  0  0  0  0  0  0  0  0  0  0  0
  -21.1678   13.1594   26.9142 H   0  0  0  0  0  0  0  0  0  0  0  0
  -18.9188   12.1524   27.3485 H   0  0  0  0  0  0  0  0  0  0  0  0
  -18.6424   13.3271   28.6849 H   0  0  0  0  0  0  0  0  0  0  0  0
  -17.1735   15.2244   27.9028 H   0  0  0  0  0  0  0  0  0  0  0  0
  -16.8035   17.4362   24.6529 H   0  0  0  0  0  0  0  0  0  0  0  0
  -16.5514   19.7179   27.3181 H   0  0  0  0  0  0  0  0  0  0  0  0
  -15.7911   20.7003   25.9443 H   0  0  0  0  0  0  0  0  0  0  0  0
  -14.7407   20.2708   28.7133 H   0  0  0  0  0  0  0  0  0  0  0  0
  -13.9183   21.1797   27.3049 H   0  0  0  0  0  0  0  0  0  0  0  0
  -13.6848   18.2876   28.0683 H   0  0  0  0  0  0  0  0  0  0  0  0
  -12.7854   19.1858   26.7211 H   0  0  0  0  0  0  0  0  0  0  0  0
  -18.5816   15.5846   23.8728 H   0  0  0  0  0  0  0  0  0  0  0  0
  1  2  1  0
  2  3  1  0
  3  4  1  0
  4  5  2  0
  5  6  1  0
  6  7  1  0
  7  8  2  0
  7  9  1  0
  9 10  1  0
 10 11  3  0
  9 12  1  0
 12 13  1  0
 13 14  1  0
  5 15  1  0
 15 16  2  0
 16  3  1  0
 14  9  1  0
  1 17  1  0
  1 18  1  0
  1 19  1  0
  2 20  1  0
  2 21  1  0
  4 22  1  0
  6 23  1  0
 12 24  1  0
 12 25  1  0
 13 26  1  0
 13 27  1  0
 14 28  1  0
 14 29  1  0
 15 30  1  0
M  END
>  <CHROM.1>  (1) 
122.00155730,11.84249954,-43.51591833,-0.17969338,0.84674441,1.85125170

>  <Name>  (1) 
CCn1cc(NC(=O)C2(C#N)CCC2)cn1

>  <RI>  (1) 
1.7662e+07

>  <Rbt.Current_Directory>  (1) 
/data/out

>  <Rbt.Executable>  (1) 
rbdock ($Id: //depot/dev/client3/rdock/2013.1/src/exe/rbdock.cxx#4 $)

>  <Rbt.Library>  (1) 
libRbt.so (2013.1, Build901 2013/11/27)

>  <Rbt.Parameter_File>  (1) 
/python_libraries/phenodiscovery/docking/templates/RDOCK_TETHER.conf

>  <Rbt.Receptor>  (1) 
/data/out/rdock-opt/grid/rdock-grid.prm

>  <SCORE>  (1) 
-17.6823

>  <SCORE.INTER>  (1) 
-14.623

>  <SCORE.INTER.CONST>  (1) 
1

>  <SCORE.INTER.POLAR>  (1) 
-1.77316

>  <SCORE.INTER.REPUL>  (1) 
0

>  <SCORE.INTER.ROT>  (1) 
3

>  <SCORE.INTER.VDW>  (1) 
-16.9942

>  <SCORE.INTER.norm>  (1) 
-0.913935

>  <SCORE.INTRA>  (1) 
-3.18437

>  <SCORE.INTRA.DIHEDRAL>  (1) 
-9.07155

>  <SCORE.INTRA.DIHEDRAL.0>  (1) 
13.6163

>  <SCORE.INTRA.POLAR>  (1) 
0

>  <SCORE.INTRA.POLAR.0>  (1) 
0

>  <SCORE.INTRA.REPUL>  (1) 
0

>  <SCORE.INTRA.REPUL.0>  (1) 
0

>  <SCORE.INTRA.VDW>  (1) 
1.3514

>  <SCORE.INTRA.VDW.0>  (1) 
-1.88484

>  <SCORE.INTRA.norm>  (1) 
-0.199023

>  <SCORE.RESTR>  (1) 
0.12504

>  <SCORE.RESTR.CAVITY>  (1) 
0.12504

>  <SCORE.RESTR.norm>  (1) 
0.007815

>  <SCORE.SYSTEM>  (1) 
0

>  <SCORE.SYSTEM.CONST>  (1) 
0

>  <SCORE.SYSTEM.DIHEDRAL>  (1) 
0

>  <SCORE.SYSTEM.norm>  (1) 
0

>  <SCORE.heavy>  (1) 
16

>  <SCORE.norm>  (1) 
-1.10514

>  <TETHERED ATOMS>  (1) 
8,7,6,5,9,13,12,14,16,2,1,3,4,15

>  <skeledock_score>  (1) 
103

$$$$
