CCn1cc(NC(=O)C2CC(N)C2)cn1
     RDKit          3D

 31 32  0  0  0  0  0  0  0  0999 V2000
  -20.5974   13.3406   27.7533 C   0  0  0  0  0  0  0  0  0  0  0  0
  -19.1202   13.0156   27.5597 C   0  0  0  0  0  0  0  0  0  0  0  0
  -18.4708   14.0521   26.7619 N   0  0  0  0  0  0  0  0  0  0  0  0
  -17.6489   15.0155   27.2259 C   0  0  0  0  0  0  0  0  0  0  0  0
  -17.2659   15.7834   26.1432 C   0  0  0  0  0  0  0  0  0  0  0  0
  -16.4561   16.9680   26.1204 N   0  0  0  0  0  0  0  0  0  0  0  0
  -15.8501   17.5831   27.2683 C   0  0  0  0  0  0  0  0  0  0  0  0
  -15.9416   17.0498   28.4068 O   0  0  0  0  0  0  0  0  0  0  0  0
  -15.1568   18.9150   27.1066 C   0  0  0  0  0  0  0  0  0  0  0  0
  -15.9247   19.9038   26.2262 C   0  0  0  0  0  0  0  0  0  0  0  0
  -14.7385   19.9742   25.2699 C   0  0  0  0  0  0  0  0  0  0  0  0
  -15.0703   19.4601   23.9436 N   0  0  0  0  0  0  0  0  0  0  0  0
  -13.9904   18.9461   26.1142 C   0  0  0  0  0  0  0  0  0  0  0  0
  -17.9020   15.2349   25.0487 C   0  0  0  0  0  0  0  0  0  0  0  0
  -18.6263   14.1737   25.4513 N   0  0  0  0  0  0  0  0  0  0  0  0
  -20.7076   14.3244   28.2571 H   0  0  0  0  0  0  0  0  0  0  0  0
  -21.1169   13.3712   26.7721 H   0  0  0  0  0  0  0  0  0  0  0  0
  -21.0717   12.5592   28.3836 H   0  0  0  0  0  0  0  0  0  0  0  0
  -19.0191   12.0368   27.0437 H   0  0  0  0  0  0  0  0  0  0  0  0
  -18.6330   12.9347   28.5562 H   0  0  0  0  0  0  0  0  0  0  0  0
  -17.3884   15.1543   28.2661 H   0  0  0  0  0  0  0  0  0  0  0  0
  -16.2802   17.4014   25.1860 H   0  0  0  0  0  0  0  0  0  0  0  0
  -14.8804   19.3581   28.0888 H   0  0  0  0  0  0  0  0  0  0  0  0
  -16.8395   19.4783   25.7553 H   0  0  0  0  0  0  0  0  0  0  0  0
  -16.1064   20.8722   26.7412 H   0  0  0  0  0  0  0  0  0  0  0  0
  -14.2460   20.9728   25.2424 H   0  0  0  0  0  0  0  0  0  0  0  0
  -14.1969   19.4805   23.3692 H   0  0  0  0  0  0  0  0  0  0  0  0
  -15.7318   20.1369   23.4989 H   0  0  0  0  0  0  0  0  0  0  0  0
  -13.0671   19.3701   26.5658 H   0  0  0  0  0  0  0  0  0  0  0  0
  -13.8120   17.9890   25.5761 H   0  0  0  0  0  0  0  0  0  0  0  0
  -17.8480   15.5872   24.0273 H   0  0  0  0  0  0  0  0  0  0  0  0
  1  2  1  0
  2  3  1  0
  3  4  1  0
  4  5  2  0
  5  6  1  0
  6  7  1  0
  7  8  2  0
  7  9  1  0
  9 10  1  0
 10 11  1  0
 11 12  1  0
 11 13  1  0
  5 14  1  0
 14 15  2  0
 15  3  1  0
 13  9  1  0
  1 16  1  0
  1 17  1  0
  1 18  1  0
  2 19  1  0
  2 20  1  0
  4 21  1  0
  6 22  1  0
  9 23  1  0
 10 24  1  0
 10 25  1  0
 11 26  1  0
 12 27  1  0
 12 28  1  0
 13 29  1  0
 13 30  1  0
 14 31  1  0
M  END
>  <CHROM.1>  (1) 
104.42726908,1.25726562,42.59079526,-176.22916558,-0.20590466,0.90690715
1.73423805

>  <Name>  (1) 
CCn1cc(NC(=O)C2CC(N)C2)cn1

>  <RI>  (1) 
1.4676e+07

>  <Rbt.Current_Directory>  (1) 
/data/out

>  <Rbt.Executable>  (1) 
rbdock ($Id: //depot/dev/client3/rdock/2013.1/src/exe/rbdock.cxx#4 $)

>  <Rbt.Library>  (1) 
libRbt.so (2013.1, Build901 2013/11/27)

>  <Rbt.Parameter_File>  (1) 
/python_libraries/phenodiscovery/docking/templates/RDOCK_TETHER.conf

>  <Rbt.Receptor>  (1) 
/data/out/rdock-opt/grid/rdock-grid.prm

>  <SCORE>  (1) 
-15.9395

>  <SCORE.INTER>  (1) 
-14.5964

>  <SCORE.INTER.CONST>  (1) 
1

>  <SCORE.INTER.POLAR>  (1) 
-1.97358

>  <SCORE.INTER.REPUL>  (1) 
0.0349876

>  <SCORE.INTER.ROT>  (1) 
4

>  <SCORE.INTER.VDW>  (1) 
-17.4611

>  <SCORE.INTER.norm>  (1) 
-0.973091

>  <SCORE.INTRA>  (1) 
-1.34311

>  <SCORE.INTRA.DIHEDRAL>  (1) 
-3.03663

>  <SCORE.INTRA.DIHEDRAL.0>  (1) 
6.56397

>  <SCORE.INTRA.POLAR>  (1) 
0

>  <SCORE.INTRA.POLAR.0>  (1) 
0

>  <SCORE.INTRA.REPUL>  (1) 
0

>  <SCORE.INTRA.REPUL.0>  (1) 
0

>  <SCORE.INTRA.VDW>  (1) 
0.175205

>  <SCORE.INTRA.VDW.0>  (1) 
-2.03523

>  <SCORE.INTRA.norm>  (1) 
-0.0895405

>  <SCORE.RESTR>  (1) 
0

>  <SCORE.RESTR.CAVITY>  (1) 
0

>  <SCORE.RESTR.norm>  (1) 
0

>  <SCORE.SYSTEM>  (1) 
0

>  <SCORE.SYSTEM.CONST>  (1) 
0

>  <SCORE.SYSTEM.DIHEDRAL>  (1) 
0

>  <SCORE.SYSTEM.norm>  (1) 
0

>  <SCORE.heavy>  (1) 
15

>  <SCORE.norm>  (1) 
-1.06263

>  <TETHERED ATOMS>  (1) 
8,7,6,5,11,9,13,10,15,2,1,3,4,14

>  <skeledock_score>  (1) 
105

$$$$
