NC(=O)NCC(=O)N1CCN(c2ccc(F)cc2)CC1
     RDKit          3D

 37 38  0  0  0  0  0  0  0  0999 V2000
  -13.3540   18.5951   24.8771 N   0  0  0  0  0  0  0  0  0  0  0  0
  -14.0314   18.0791   26.0217 C   0  0  0  0  0  0  0  0  0  0  0  0
  -13.3843   17.8596   27.0808 O   0  0  0  0  0  0  0  0  0  0  0  0
  -15.4386   17.8113   25.9614 N   0  0  0  0  0  0  0  0  0  0  0  0
  -16.1935   17.2984   27.1035 C   0  0  0  0  0  0  0  0  0  0  0  0
  -16.0365   15.8048   27.2246 C   0  0  0  0  0  0  0  0  0  0  0  0
  -14.9947   15.3675   27.7868 O   0  0  0  0  0  0  0  0  0  0  0  0
  -17.0287   14.8742   26.7221 N   0  0  0  0  0  0  0  0  0  0  0  0
  -17.5155   13.8362   27.6525 C   0  0  0  0  0  0  0  0  0  0  0  0
  -18.1649   12.6617   26.9251 C   0  0  0  0  0  0  0  0  0  0  0  0
  -19.0797   13.1619   25.9033 N   0  0  0  0  0  0  0  0  0  0  0  0
  -20.4896   12.8746   25.9376 C   0  0  0  0  0  0  0  0  0  0  0  0
  -21.1144   12.2401   24.8501 C   0  0  0  0  0  0  0  0  0  0  0  0
  -22.4704   11.9052   24.9133 C   0  0  0  0  0  0  0  0  0  0  0  0
  -23.2132   12.2038   26.0591 C   0  0  0  0  0  0  0  0  0  0  0  0
  -24.5197   11.8497   26.1319 F   0  0  0  0  0  0  0  0  0  0  0  0
  -22.6049   12.8540   27.1363 C   0  0  0  0  0  0  0  0  0  0  0  0
  -21.2488   13.1878   27.0778 C   0  0  0  0  0  0  0  0  0  0  0  0
  -18.5103   14.0461   24.8905 C   0  0  0  0  0  0  0  0  0  0  0  0
  -17.8653   15.2564   25.5662 C   0  0  0  0  0  0  0  0  0  0  0  0
  -13.8751   18.7856   23.9928 H   0  0  0  0  0  0  0  0  0  0  0  0
  -12.3291   18.7907   24.9141 H   0  0  0  0  0  0  0  0  0  0  0  0
  -15.9349   17.9372   25.0506 H   0  0  0  0  0  0  0  0  0  0  0  0
  -17.2662   17.5614   26.9752 H   0  0  0  0  0  0  0  0  0  0  0  0
  -15.8504   17.7856   28.0407 H   0  0  0  0  0  0  0  0  0  0  0  0
  -18.2591   14.2922   28.3416 H   0  0  0  0  0  0  0  0  0  0  0  0
  -16.6778   13.4342   28.2631 H   0  0  0  0  0  0  0  0  0  0  0  0
  -18.6910   12.0092   27.6554 H   0  0  0  0  0  0  0  0  0  0  0  0
  -17.3757   12.0493   26.4371 H   0  0  0  0  0  0  0  0  0  0  0  0
  -20.5454   11.9766   23.9679 H   0  0  0  0  0  0  0  0  0  0  0  0
  -22.9409   11.4009   24.0790 H   0  0  0  0  0  0  0  0  0  0  0  0
  -23.1808   13.0898   28.0220 H   0  0  0  0  0  0  0  0  0  0  0  0
  -20.7888   13.6871   27.9211 H   0  0  0  0  0  0  0  0  0  0  0  0
  -17.7418   13.4902   24.3104 H   0  0  0  0  0  0  0  0  0  0  0  0
  -19.2877   14.4013   24.1795 H   0  0  0  0  0  0  0  0  0  0  0  0
  -18.6634   15.9484   25.9129 H   0  0  0  0  0  0  0  0  0  0  0  0
  -17.2628   15.7743   24.7928 H   0  0  0  0  0  0  0  0  0  0  0  0
  1  2  1  0
  2  3  2  0
  2  4  1  0
  4  5  1  0
  5  6  1  0
  6  7  2  0
  6  8  1  0
  8  9  1  0
  9 10  1  0
 10 11  1  0
 11 12  1  0
 12 13  2  0
 13 14  1  0
 14 15  2  0
 15 16  1  0
 15 17  1  0
 17 18  2  0
 11 19  1  0
 19 20  1  0
 20  8  1  0
 18 12  1  0
  1 21  1  0
  1 22  1  0
  4 23  1  0
  5 24  1  0
  5 25  1  0
  9 26  1  0
  9 27  1  0
 10 28  1  0
 10 29  1  0
 13 30  1  0
 14 31  1  0
 17 32  1  0
 18 33  1  0
 19 34  1  0
 19 35  1  0
 20 36  1  0
 20 37  1  0
M  END
>  <CHROM.1>  (1) 
-81.74635991,81.46800047,-128.53745546,-122.88955738,-0.18805271,-0.37820140
-1.68392394

>  <Name>  (1) 
NC(=O)NCC(=O)N1CCN(c2ccc(F)cc2)CC1

>  <RI>  (1) 
0

>  <Rbt.Current_Directory>  (1) 
/data/out

>  <Rbt.Executable>  (1) 
rbdock ($Id: //depot/dev/client3/rdock/2013.1/src/exe/rbdock.cxx#4 $)

>  <Rbt.Library>  (1) 
libRbt.so (2013.1, Build901 2013/11/27)

>  <Rbt.Parameter_File>  (1) 
/python_libraries/phenodiscovery/docking/templates/RDOCK_TETHER.conf

>  <Rbt.Receptor>  (1) 
/data/out/rdock-opt/grid/rdock-grid.prm

>  <SCORE>  (1) 
-15.4175

>  <SCORE.INTER>  (1) 
-15.1291

>  <SCORE.INTER.CONST>  (1) 
1

>  <SCORE.INTER.POLAR>  (1) 
-1.69606

>  <SCORE.INTER.REPUL>  (1) 
0.0663716

>  <SCORE.INTER.ROT>  (1) 
4

>  <SCORE.INTER.VDW>  (1) 
-19.0944

>  <SCORE.INTER.norm>  (1) 
-0.756455

>  <SCORE.INTRA>  (1) 
-0.288427

>  <SCORE.INTRA.DIHEDRAL>  (1) 
1.98525

>  <SCORE.INTRA.DIHEDRAL.0>  (1) 
10.1645

>  <SCORE.INTRA.POLAR>  (1) 
0

>  <SCORE.INTRA.POLAR.0>  (1) 
0

>  <SCORE.INTRA.REPUL>  (1) 
0

>  <SCORE.INTRA.REPUL.0>  (1) 
0

>  <SCORE.INTRA.VDW>  (1) 
-1.28105

>  <SCORE.INTRA.VDW.0>  (1) 
-1.76894

>  <SCORE.INTRA.norm>  (1) 
-0.0144214

>  <SCORE.RESTR>  (1) 
0

>  <SCORE.RESTR.CAVITY>  (1) 
0

>  <SCORE.RESTR.norm>  (1) 
0

>  <SCORE.SYSTEM>  (1) 
0

>  <SCORE.SYSTEM.CONST>  (1) 
0

>  <SCORE.SYSTEM.DIHEDRAL>  (1) 
0

>  <SCORE.SYSTEM.norm>  (1) 
0

>  <SCORE.heavy>  (1) 
20

>  <SCORE.norm>  (1) 
-0.770876

>  <TETHERED ATOMS>  (1) 
11,10,9,7,19,12,16,8,6,20,15,14,18,13,17

>  <skeledock_score>  (1) 
113

$$$$
