C[C@H](N)CCNC(=O)N1CCN(c2ccc(F)cc2)CC1
     RDKit          3D

 44 45  0  0  0  0  0  0  0  0999 V2000
  -14.3290   21.3992   25.8263 C   0  0  0  0  0  0  0  0  0  0  0  0
  -14.0266   19.9976   25.2801 C   0  0  0  0  0  0  0  0  0  0  0  0
  -14.0481   20.0106   23.8159 N   0  0  0  0  0  0  0  0  0  0  0  0
  -15.0022   18.9358   25.8346 C   0  0  0  0  0  0  0  0  0  0  0  0
  -14.5189   17.4905   25.6489 C   0  0  0  0  0  0  0  0  0  0  0  0
  -15.6678   16.5858   25.6283 N   0  0  0  0  0  0  0  0  0  0  0  0
  -15.8669   15.5548   26.6082 C   0  0  0  0  0  0  0  0  0  0  0  0
  -15.2611   15.6220   27.7131 O   0  0  0  0  0  0  0  0  0  0  0  0
  -16.7865   14.4697   26.3691 N   0  0  0  0  0  0  0  0  0  0  0  0
  -17.0998   14.0051   25.0098 C   0  0  0  0  0  0  0  0  0  0  0  0
  -18.6126   13.8330   24.8553 C   0  0  0  0  0  0  0  0  0  0  0  0
  -19.1976   13.1551   26.0212 N   0  0  0  0  0  0  0  0  0  0  0  0
  -20.6258   13.0363   26.1130 C   0  0  0  0  0  0  0  0  0  0  0  0
  -21.3432   12.3714   25.1059 C   0  0  0  0  0  0  0  0  0  0  0  0
  -22.7190   12.1642   25.2419 C   0  0  0  0  0  0  0  0  0  0  0  0
  -23.3872   12.6246   26.3803 C   0  0  0  0  0  0  0  0  0  0  0  0
  -24.7133   12.3883   26.5297 F   0  0  0  0  0  0  0  0  0  0  0  0
  -22.6842   13.3124   27.3736 C   0  0  0  0  0  0  0  0  0  0  0  0
  -21.3074   13.5154   27.2438 C   0  0  0  0  0  0  0  0  0  0  0  0
  -18.3377   12.6611   27.1033 C   0  0  0  0  0  0  0  0  0  0  0  0
  -17.3375   13.7431   27.5248 C   0  0  0  0  0  0  0  0  0  0  0  0
  -13.5076   22.0943   25.5509 H   0  0  0  0  0  0  0  0  0  0  0  0
  -15.2745   21.7965   25.4013 H   0  0  0  0  0  0  0  0  0  0  0  0
  -14.4056   21.3762   26.9343 H   0  0  0  0  0  0  0  0  0  0  0  0
  -13.0032   19.7195   25.6218 H   0  0  0  0  0  0  0  0  0  0  0  0
  -15.0045   20.2959   23.5023 H   0  0  0  0  0  0  0  0  0  0  0  0
  -13.4008   20.7625   23.4838 H   0  0  0  0  0  0  0  0  0  0  0  0
  -15.1523   19.1281   26.9198 H   0  0  0  0  0  0  0  0  0  0  0  0
  -15.9929   19.0534   25.3427 H   0  0  0  0  0  0  0  0  0  0  0  0
  -13.9420   17.4101   24.7042 H   0  0  0  0  0  0  0  0  0  0  0  0
  -13.8533   17.1987   26.4888 H   0  0  0  0  0  0  0  0  0  0  0  0
  -16.4032   16.7550   24.9066 H   0  0  0  0  0  0  0  0  0  0  0  0
  -16.6023   13.0248   24.8443 H   0  0  0  0  0  0  0  0  0  0  0  0
  -16.7212   14.6899   24.2257 H   0  0  0  0  0  0  0  0  0  0  0  0
  -19.0741   14.8394   24.7517 H   0  0  0  0  0  0  0  0  0  0  0  0
  -18.8209   13.2527   23.9315 H   0  0  0  0  0  0  0  0  0  0  0  0
  -20.8300   11.9823   24.2355 H   0  0  0  0  0  0  0  0  0  0  0  0
  -23.2630   11.6316   24.4725 H   0  0  0  0  0  0  0  0  0  0  0  0
  -23.2022   13.6728   28.2531 H   0  0  0  0  0  0  0  0  0  0  0  0
  -20.7721   14.0364   28.0269 H   0  0  0  0  0  0  0  0  0  0  0  0
  -17.7821   11.7699   26.7393 H   0  0  0  0  0  0  0  0  0  0  0  0
  -18.9368   12.3421   27.9840 H   0  0  0  0  0  0  0  0  0  0  0  0
  -17.8627   14.4668   28.1857 H   0  0  0  0  0  0  0  0  0  0  0  0
  -16.5133   13.2732   28.1040 H   0  0  0  0  0  0  0  0  0  0  0  0
  1  2  1  0
  2  3  1  0
  2  4  1  0
  4  5  1  0
  5  6  1  0
  6  7  1  0
  7  8  2  0
  7  9  1  0
  9 10  1  0
 10 11  1  0
 11 12  1  0
 12 13  1  0
 13 14  2  0
 14 15  1  0
 15 16  2  0
 16 17  1  0
 16 18  1  0
 18 19  2  0
 12 20  1  0
 20 21  1  0
 21  9  1  0
 19 13  1  0
  1 22  1  0
  1 23  1  0
  1 24  1  0
  2 25  1  0
  3 26  1  0
  3 27  1  0
  4 28  1  0
  4 29  1  0
  5 30  1  0
  5 31  1  0
  6 32  1  0
 10 33  1  0
 10 34  1  0
 11 35  1  0
 11 36  1  0
 14 37  1  0
 15 38  1  0
 18 39  1  0
 19 40  1  0
 20 41  1  0
 20 42  1  0
 21 43  1  0
 21 44  1  0
M  END
>  <CHROM.1>  (1) 
-61.03283624,-163.60980384,-154.93503203,-117.63800703,58.96159257,-0.10765694
-0.34005911,-1.80474321

>  <Name>  (1) 
C[C@H](N)CCNC(=O)N1CCN(c2ccc(F)cc2)CC1

>  <RI>  (1) 
0

>  <Rbt.Current_Directory>  (1) 
/data/out

>  <Rbt.Executable>  (1) 
rbdock ($Id: //depot/dev/client3/rdock/2013.1/src/exe/rbdock.cxx#4 $)

>  <Rbt.Library>  (1) 
libRbt.so (2013.1, Build901 2013/11/27)

>  <Rbt.Parameter_File>  (1) 
/python_libraries/phenodiscovery/docking/templates/RDOCK_TETHER.conf

>  <Rbt.Receptor>  (1) 
/data/out/rdock-opt/grid/rdock-grid.prm

>  <SCORE>  (1) 
-15.8198

>  <SCORE.INTER>  (1) 
-18.012

>  <SCORE.INTER.CONST>  (1) 
1

>  <SCORE.INTER.POLAR>  (1) 
-2.50912

>  <SCORE.INTER.REPUL>  (1) 
0.157974

>  <SCORE.INTER.ROT>  (1) 
5

>  <SCORE.INTER.VDW>  (1) 
-20.6708

>  <SCORE.INTER.norm>  (1) 
-0.857713

>  <SCORE.INTRA>  (1) 
2.14407

>  <SCORE.INTRA.DIHEDRAL>  (1) 
2.7591

>  <SCORE.INTRA.DIHEDRAL.0>  (1) 
10.2359

>  <SCORE.INTRA.POLAR>  (1) 
0

>  <SCORE.INTRA.POLAR.0>  (1) 
0

>  <SCORE.INTRA.REPUL>  (1) 
0

>  <SCORE.INTRA.REPUL.0>  (1) 
0

>  <SCORE.INTRA.VDW>  (1) 
0.764519

>  <SCORE.INTRA.VDW.0>  (1) 
-1.29821

>  <SCORE.INTRA.norm>  (1) 
0.102098

>  <SCORE.RESTR>  (1) 
0.0480579

>  <SCORE.RESTR.CAVITY>  (1) 
0.0480579

>  <SCORE.RESTR.norm>  (1) 
0.00228847

>  <SCORE.SYSTEM>  (1) 
0

>  <SCORE.SYSTEM.CONST>  (1) 
0

>  <SCORE.SYSTEM.DIHEDRAL>  (1) 
0

>  <SCORE.SYSTEM.norm>  (1) 
0

>  <SCORE.heavy>  (1) 
21

>  <SCORE.norm>  (1) 
-0.753326

>  <TETHERED ATOMS>  (1) 
12,20,21,8,13,11,17,7,6,16,9,10,14,19,15,18

>  <skeledock_score>  (1) 
123

$$$$
