N#CCc1cccc(NCc2cc[nH]n2)c1
     RDKit          3D

 28 29  0  0  0  0  0  0  0  0999 V2000
  -25.9716   15.5054   27.0111 N   0  0  0  0  0  0  0  0  0  0  0  0
  -25.5768   14.5118   27.4538 C   0  0  0  0  0  0  0  0  0  0  0  0
  -25.0763   13.2520   28.0149 C   0  0  0  0  0  0  0  0  0  0  0  0
  -23.8321   12.8128   27.2906 C   0  0  0  0  0  0  0  0  0  0  0  0
  -23.9217   12.2790   25.9958 C   0  0  0  0  0  0  0  0  0  0  0  0
  -22.7710   11.8619   25.3252 C   0  0  0  0  0  0  0  0  0  0  0  0
  -21.5213   11.9693   25.9392 C   0  0  0  0  0  0  0  0  0  0  0  0
  -21.4097   12.5013   27.2384 C   0  0  0  0  0  0  0  0  0  0  0  0
  -20.1390   12.6198   27.9080 N   0  0  0  0  0  0  0  0  0  0  0  0
  -18.8405   12.5634   27.2378 C   0  0  0  0  0  0  0  0  0  0  0  0
  -18.7271   13.6633   26.2298 C   0  0  0  0  0  0  0  0  0  0  0  0
  -18.4254   13.5113   24.8901 C   0  0  0  0  0  0  0  0  0  0  0  0
  -18.4269   14.7970   24.3947 C   0  0  0  0  0  0  0  0  0  0  0  0
  -18.7102   15.6463   25.3984 N   0  0  0  0  0  0  0  0  0  0  0  0
  -18.8933   14.9684   26.5194 N   0  0  0  0  0  0  0  0  0  0  0  0
  -22.5737   12.9163   27.9060 C   0  0  0  0  0  0  0  0  0  0  0  0
  -24.8777   13.4052   29.0971 H   0  0  0  0  0  0  0  0  0  0  0  0
  -25.8595   12.4706   27.9192 H   0  0  0  0  0  0  0  0  0  0  0  0
  -24.8843   12.1851   25.5079 H   0  0  0  0  0  0  0  0  0  0  0  0
  -22.8482   11.4497   24.3273 H   0  0  0  0  0  0  0  0  0  0  0  0
  -20.6536   11.6264   25.3954 H   0  0  0  0  0  0  0  0  0  0  0  0
  -20.1323   12.7354   28.9472 H   0  0  0  0  0  0  0  0  0  0  0  0
  -18.0336   12.6973   27.9896 H   0  0  0  0  0  0  0  0  0  0  0  0
  -18.6938   11.5674   26.7682 H   0  0  0  0  0  0  0  0  0  0  0  0
  -18.2307   12.5942   24.3501 H   0  0  0  0  0  0  0  0  0  0  0  0
  -18.2319   15.0937   23.3726 H   0  0  0  0  0  0  0  0  0  0  0  0
  -18.7783   16.6850   25.3225 H   0  0  0  0  0  0  0  0  0  0  0  0
  -22.4967   13.3243   28.9066 H   0  0  0  0  0  0  0  0  0  0  0  0
  1  2  3  0
  2  3  1  0
  3  4  1  0
  4  5  2  0
  5  6  1  0
  6  7  2  0
  7  8  1  0
  8  9  1  0
  9 10  1  0
 10 11  1  0
 11 12  1  0
 12 13  2  0
 13 14  1  0
 14 15  1  0
  8 16  2  0
 16  4  1  0
 15 11  2  0
  3 17  1  0
  3 18  1  0
  5 19  1  0
  6 20  1  0
  7 21  1  0
  9 22  1  0
 10 23  1  0
 10 24  1  0
 12 25  1  0
 13 26  1  0
 14 27  1  0
 16 28  1  0
M  END
>  <CHROM.1>  (1) 
-74.02846823,17.33302567,60.29080851,-125.29318532,-2.77831876,-0.34681627
-1.21776074

>  <Name>  (1) 
N#CCc1cccc(NCc2cc[nH]n2)c1

>  <RI>  (1) 
3.94188e+07

>  <Rbt.Current_Directory>  (1) 
/data/out

>  <Rbt.Executable>  (1) 
rbdock ($Id: //depot/dev/client3/rdock/2013.1/src/exe/rbdock.cxx#4 $)

>  <Rbt.Library>  (1) 
libRbt.so (2013.1, Build901 2013/11/27)

>  <Rbt.Parameter_File>  (1) 
/python_libraries/phenodiscovery/docking/templates/RDOCK_TETHER.conf

>  <Rbt.Receptor>  (1) 
/data/out/rdock-opt/grid/rdock-grid.prm

>  <SCORE>  (1) 
-16.1787

>  <SCORE.INTER>  (1) 
-16.2807

>  <SCORE.INTER.CONST>  (1) 
1

>  <SCORE.INTER.POLAR>  (1) 
-0.916515

>  <SCORE.INTER.REPUL>  (1) 
0

>  <SCORE.INTER.ROT>  (1) 
4

>  <SCORE.INTER.VDW>  (1) 
-22.5645

>  <SCORE.INTER.norm>  (1) 
-1.01754

>  <SCORE.INTRA>  (1) 
0.102012

>  <SCORE.INTRA.DIHEDRAL>  (1) 
1.12767

>  <SCORE.INTRA.DIHEDRAL.0>  (1) 
3.42778

>  <SCORE.INTRA.POLAR>  (1) 
0

>  <SCORE.INTRA.POLAR.0>  (1) 
0

>  <SCORE.INTRA.REPUL>  (1) 
0

>  <SCORE.INTRA.REPUL.0>  (1) 
0

>  <SCORE.INTRA.VDW>  (1) 
-0.461823

>  <SCORE.INTRA.VDW.0>  (1) 
-1.14956

>  <SCORE.INTRA.norm>  (1) 
0.00637577

>  <SCORE.RESTR>  (1) 
0

>  <SCORE.RESTR.CAVITY>  (1) 
0

>  <SCORE.RESTR.norm>  (1) 
0

>  <SCORE.SYSTEM>  (1) 
0

>  <SCORE.SYSTEM.CONST>  (1) 
0

>  <SCORE.SYSTEM.DIHEDRAL>  (1) 
0

>  <SCORE.SYSTEM.norm>  (1) 
0

>  <SCORE.heavy>  (1) 
16

>  <SCORE.norm>  (1) 
-1.01117

>  <TETHERED ATOMS>  (1) 
9,8,14,15,11,13,12,10,5,7,6,4,16

>  <skeledock_score>  (1) 
94

$$$$
