NC(=O)NC(=O)c1cccc(NCc2cc[nH]n2)c1
     RDKit          3D

 32 33  0  0  0  0  0  0  0  0999 V2000
  -26.4200   16.1582   29.5419 N   0  0  0  0  0  0  0  0  0  0  0  0
  -26.3611   15.3222   28.3868 C   0  0  0  0  0  0  0  0  0  0  0  0
  -27.4108   15.1133   27.7211 O   0  0  0  0  0  0  0  0  0  0  0  0
  -25.1161   14.7179   28.0041 N   0  0  0  0  0  0  0  0  0  0  0  0
  -24.9406   13.9445   26.8034 C   0  0  0  0  0  0  0  0  0  0  0  0
  -25.8157   13.9854   25.8956 O   0  0  0  0  0  0  0  0  0  0  0  0
  -23.7245   13.1201   26.5993 C   0  0  0  0  0  0  0  0  0  0  0  0
  -23.7216   12.0963   25.6334 C   0  0  0  0  0  0  0  0  0  0  0  0
  -22.5827   11.3134   25.4346 C   0  0  0  0  0  0  0  0  0  0  0  0
  -21.4454   11.5239   26.2118 C   0  0  0  0  0  0  0  0  0  0  0  0
  -21.4303   12.5287   27.1840 C   0  0  0  0  0  0  0  0  0  0  0  0
  -20.2819   12.6594   28.0294 N   0  0  0  0  0  0  0  0  0  0  0  0
  -18.9215   12.7154   27.5104 C   0  0  0  0  0  0  0  0  0  0  0  0
  -18.8108   13.7389   26.4224 C   0  0  0  0  0  0  0  0  0  0  0  0
  -18.5641   13.4931   25.0830 C   0  0  0  0  0  0  0  0  0  0  0  0
  -18.5125   14.7471   24.5126 C   0  0  0  0  0  0  0  0  0  0  0  0
  -18.7090   15.6665   25.4742 N   0  0  0  0  0  0  0  0  0  0  0  0
  -18.8888   15.0650   26.6383 N   0  0  0  0  0  0  0  0  0  0  0  0
  -22.5666   13.3301   27.3745 C   0  0  0  0  0  0  0  0  0  0  0  0
  -25.5636   16.3412   30.1102 H   0  0  0  0  0  0  0  0  0  0  0  0
  -27.3225   16.5970   29.8302 H   0  0  0  0  0  0  0  0  0  0  0  0
  -24.2894   14.8893   28.6185 H   0  0  0  0  0  0  0  0  0  0  0  0
  -24.5961   11.9113   25.0220 H   0  0  0  0  0  0  0  0  0  0  0  0
  -22.5877   10.5328   24.6848 H   0  0  0  0  0  0  0  0  0  0  0  0
  -20.5751   10.8965   26.0639 H   0  0  0  0  0  0  0  0  0  0  0  0
  -20.3964   12.4431   29.0459 H   0  0  0  0  0  0  0  0  0  0  0  0
  -18.2084   12.9418   28.3314 H   0  0  0  0  0  0  0  0  0  0  0  0
  -18.6522   11.7239   27.0877 H   0  0  0  0  0  0  0  0  0  0  0  0
  -18.4369   12.5366   24.5936 H   0  0  0  0  0  0  0  0  0  0  0  0
  -18.3369   14.9738   23.4694 H   0  0  0  0  0  0  0  0  0  0  0  0
  -18.7194   16.7017   25.3404 H   0  0  0  0  0  0  0  0  0  0  0  0
  -22.5567   14.0727   28.1613 H   0  0  0  0  0  0  0  0  0  0  0  0
  1  2  1  0
  2  3  2  0
  2  4  1  0
  4  5  1  0
  5  6  2  0
  5  7  1  0
  7  8  2  0
  8  9  1  0
  9 10  2  0
 10 11  1  0
 11 12  1  0
 12 13  1  0
 13 14  1  0
 14 15  1  0
 15 16  2  0
 16 17  1  0
 17 18  1  0
 11 19  2  0
 19  7  1  0
 18 14  2  0
  1 20  1  0
  1 21  1  0
  4 22  1  0
  8 23  1  0
  9 24  1  0
 10 25  1  0
 12 26  1  0
 13 27  1  0
 13 28  1  0
 15 29  1  0
 16 30  1  0
 17 31  1  0
 19 32  1  0
M  END
>  <CHROM.1>  (1) 
162.07131694,49.98697911,50.58739410,-112.99564258,-2.80261884,-0.39637803
-1.07305759

>  <Name>  (1) 
NC(=O)NC(=O)c1cccc(NCc2cc[nH]n2)c1

>  <RI>  (1) 
2.17691e+07

>  <Rbt.Current_Directory>  (1) 
/data/out

>  <Rbt.Executable>  (1) 
rbdock ($Id: //depot/dev/client3/rdock/2013.1/src/exe/rbdock.cxx#4 $)

>  <Rbt.Library>  (1) 
libRbt.so (2013.1, Build901 2013/11/27)

>  <Rbt.Parameter_File>  (1) 
/python_libraries/phenodiscovery/docking/templates/RDOCK_TETHER.conf

>  <Rbt.Receptor>  (1) 
/data/out/rdock-opt/grid/rdock-grid.prm

>  <SCORE>  (1) 
-18.3454

>  <SCORE.INTER>  (1) 
-19.6487

>  <SCORE.INTER.CONST>  (1) 
1

>  <SCORE.INTER.POLAR>  (1) 
-1.54934

>  <SCORE.INTER.REPUL>  (1) 
0

>  <SCORE.INTER.ROT>  (1) 
4

>  <SCORE.INTER.VDW>  (1) 
-23.781

>  <SCORE.INTER.norm>  (1) 
-1.03414

>  <SCORE.INTRA>  (1) 
1.30201

>  <SCORE.INTRA.DIHEDRAL>  (1) 
-1.3103

>  <SCORE.INTRA.DIHEDRAL.0>  (1) 
14.851

>  <SCORE.INTRA.POLAR>  (1) 
0

>  <SCORE.INTRA.POLAR.0>  (1) 
0

>  <SCORE.INTRA.REPUL>  (1) 
0

>  <SCORE.INTRA.REPUL.0>  (1) 
0

>  <SCORE.INTRA.VDW>  (1) 
1.95716

>  <SCORE.INTRA.VDW.0>  (1) 
-2.47294

>  <SCORE.INTRA.norm>  (1) 
0.068527

>  <SCORE.RESTR>  (1) 
0.00131581

>  <SCORE.RESTR.CAVITY>  (1) 
0.00131581

>  <SCORE.RESTR.norm>  (1) 
6.92532e-05

>  <SCORE.SYSTEM>  (1) 
0

>  <SCORE.SYSTEM.CONST>  (1) 
0

>  <SCORE.SYSTEM.DIHEDRAL>  (1) 
0

>  <SCORE.SYSTEM.norm>  (1) 
0

>  <SCORE.heavy>  (1) 
19

>  <SCORE.norm>  (1) 
-0.965547

>  <TETHERED ATOMS>  (1) 
12,14,15,13,11,16,18,17,8,10,19,7,9

>  <skeledock_score>  (1) 
94

$$$$
