CC(NC(=O)NCc1ccc(S(N)(=O)=O)cc1)C(=O)O
     RDKit          3D

 35 35  0  0  0  0  0  0  0  0999 V2000
  -17.5634   11.8500   22.2849 C   0  0  0  0  0  0  0  0  0  0  0  0
  -17.6746   11.9097   23.8082 C   0  0  0  0  0  0  0  0  0  0  0  0
  -18.1405   13.2404   24.2153 N   0  0  0  0  0  0  0  0  0  0  0  0
  -18.4029   13.6006   25.5794 C   0  0  0  0  0  0  0  0  0  0  0  0
  -18.2257   12.7619   26.5019 O   0  0  0  0  0  0  0  0  0  0  0  0
  -18.8623   14.9236   25.8849 N   0  0  0  0  0  0  0  0  0  0  0  0
  -19.2431   15.3679   27.2242 C   0  0  0  0  0  0  0  0  0  0  0  0
  -20.7415   15.3839   27.3892 C   0  0  0  0  0  0  0  0  0  0  0  0
  -21.4068   14.2509   27.8821 C   0  0  0  0  0  0  0  0  0  0  0  0
  -22.7917   14.2681   28.0649 C   0  0  0  0  0  0  0  0  0  0  0  0
  -23.5328   15.4129   27.7493 C   0  0  0  0  0  0  0  0  0  0  0  0
  -25.2880   15.3752   27.8939 S   0  0  0  0  0  0  0  0  0  0  0  0
  -25.7392   14.2465   29.1231 N   0  0  0  0  0  0  0  0  0  0  0  0
  -25.7949   16.7429   28.2543 O   0  0  0  0  0  0  0  0  0  0  0  0
  -25.9091   14.9452   26.5950 O   0  0  0  0  0  0  0  0  0  0  0  0
  -22.8708   16.5581   27.2839 C   0  0  0  0  0  0  0  0  0  0  0  0
  -21.4815   16.5473   27.1145 C   0  0  0  0  0  0  0  0  0  0  0  0
  -18.6088   10.8415   24.3090 C   0  0  0  0  0  0  0  0  0  0  0  0
  -19.8038   11.1140   24.6063 O   0  0  0  0  0  0  0  0  0  0  0  0
  -18.1445    9.5374   24.4523 O   0  0  0  0  0  0  0  0  0  0  0  0
  -18.5584   12.0051   21.8146 H   0  0  0  0  0  0  0  0  0  0  0  0
  -17.1615   10.8649   21.9646 H   0  0  0  0  0  0  0  0  0  0  0  0
  -16.8714   12.6420   21.9271 H   0  0  0  0  0  0  0  0  0  0  0  0
  -16.6693   11.7031   24.2340 H   0  0  0  0  0  0  0  0  0  0  0  0
  -18.3075   13.9567   23.4722 H   0  0  0  0  0  0  0  0  0  0  0  0
  -18.8991   15.6251   25.1112 H   0  0  0  0  0  0  0  0  0  0  0  0
  -18.7514   14.7230   27.9848 H   0  0  0  0  0  0  0  0  0  0  0  0
  -18.8699   16.4031   27.3797 H   0  0  0  0  0  0  0  0  0  0  0  0
  -20.8549   13.3512   28.1242 H   0  0  0  0  0  0  0  0  0  0  0  0
  -23.2877   13.3803   28.4361 H   0  0  0  0  0  0  0  0  0  0  0  0
  -25.5584   13.2886   28.7483 H   0  0  0  0  0  0  0  0  0  0  0  0
  -26.7722   14.3318   29.2538 H   0  0  0  0  0  0  0  0  0  0  0  0
  -23.4251   17.4560   27.0438 H   0  0  0  0  0  0  0  0  0  0  0  0
  -20.9840   17.4409   26.7585 H   0  0  0  0  0  0  0  0  0  0  0  0
  -18.7544    8.8027   24.7908 H   0  0  0  0  0  0  0  0  0  0  0  0
  1  2  1  0
  2  3  1  0
  3  4  1  0
  4  5  2  0
  4  6  1  0
  6  7  1  0
  7  8  1  0
  8  9  2  0
  9 10  1  0
 10 11  2  0
 11 12  1  0
 12 13  1  0
 12 14  2  0
 12 15  2  0
 11 16  1  0
 16 17  2  0
  2 18  1  0
 18 19  2  0
 18 20  1  0
 17  8  1  0
  1 21  1  0
  1 22  1  0
  1 23  1  0
  2 24  1  0
  3 25  1  0
  6 26  1  0
  7 27  1  0
  7 28  1  0
  9 29  1  0
 10 30  1  0
 13 31  1  0
 13 32  1  0
 16 33  1  0
 17 34  1  0
 20 35  1  0
M  END
>  <CHROM.1>  (1) 
177.23422229,-101.11850879,91.29656670,28.83498148,-71.77488273,-99.52906206
179.77532821,-0.17369234,0.24067269,-0.07315322

>  <Name>  (1) 
CC(NC(=O)NCc1ccc(S(N)(=O)=O)cc1)C(=O)O

>  <RI>  (1) 
0

>  <Rbt.Current_Directory>  (1) 
/data/out

>  <Rbt.Executable>  (1) 
rbdock ($Id: //depot/dev/client3/rdock/2013.1/src/exe/rbdock.cxx#4 $)

>  <Rbt.Library>  (1) 
libRbt.so (2013.1, Build901 2013/11/27)

>  <Rbt.Parameter_File>  (1) 
/python_libraries/phenodiscovery/docking/templates/RDOCK_TETHER.conf

>  <Rbt.Receptor>  (1) 
/data/out/rdock-opt/grid/rdock-grid.prm

>  <SCORE>  (1) 
-15.4434

>  <SCORE.INTER>  (1) 
-15.7215

>  <SCORE.INTER.CONST>  (1) 
1

>  <SCORE.INTER.POLAR>  (1) 
-1.74296

>  <SCORE.INTER.REPUL>  (1) 
0

>  <SCORE.INTER.ROT>  (1) 
6

>  <SCORE.INTER.VDW>  (1) 
-21.1955

>  <SCORE.INTER.norm>  (1) 
-0.786075

>  <SCORE.INTRA>  (1) 
0.278064

>  <SCORE.INTRA.DIHEDRAL>  (1) 
0.312191

>  <SCORE.INTRA.DIHEDRAL.0>  (1) 
5.31866

>  <SCORE.INTRA.POLAR>  (1) 
0

>  <SCORE.INTRA.POLAR.0>  (1) 
0

>  <SCORE.INTRA.REPUL>  (1) 
0

>  <SCORE.INTRA.REPUL.0>  (1) 
0

>  <SCORE.INTRA.VDW>  (1) 
0.121968

>  <SCORE.INTRA.VDW.0>  (1) 
-2.73382

>  <SCORE.INTRA.norm>  (1) 
0.0139032

>  <SCORE.RESTR>  (1) 
0

>  <SCORE.RESTR.CAVITY>  (1) 
0

>  <SCORE.RESTR.norm>  (1) 
0

>  <SCORE.SYSTEM>  (1) 
0

>  <SCORE.SYSTEM.CONST>  (1) 
0

>  <SCORE.SYSTEM.DIHEDRAL>  (1) 
0

>  <SCORE.SYSTEM.norm>  (1) 
0

>  <SCORE.heavy>  (1) 
20

>  <SCORE.norm>  (1) 
-0.772172

>  <TETHERED ATOMS>  (1) 
7,4,12,11,8,6,13,5,14,15,9,17,16,10

>  <skeledock_score>  (1) 
105

$$$$
