NS(=O)(=O)c1ccc(C(=O)N2CCNCC2)o1
     RDKit          3D

 30 31  0  0  0  0  0  0  0  0999 V2000
  -25.2965   14.9545   27.0025 N   0  0  0  0  0  0  0  0  0  0  0  0
  -24.1847   14.1369   28.0433 S   0  0  0  0  0  0  0  0  0  0  0  0
  -23.3321   15.1510   28.7522 O   0  0  0  0  0  0  0  0  0  0  0  0
  -24.9392   13.3305   29.0621 O   0  0  0  0  0  0  0  0  0  0  0  0
  -23.1572   13.0762   27.1007 C   0  0  0  0  0  0  0  0  0  0  0  0
  -23.5323   11.8588   26.5735 C   0  0  0  0  0  0  0  0  0  0  0  0
  -22.4186   11.3831   25.9136 C   0  0  0  0  0  0  0  0  0  0  0  0
  -21.4372   12.3432   26.0864 C   0  0  0  0  0  0  0  0  0  0  0  0
  -20.0710   12.2831   25.5365 C   0  0  0  0  0  0  0  0  0  0  0  0
  -19.7670   11.3401   24.7569 O   0  0  0  0  0  0  0  0  0  0  0  0
  -19.1031   13.3117   25.8091 N   0  0  0  0  0  0  0  0  0  0  0  0
  -18.1558   13.6971   24.7574 C   0  0  0  0  0  0  0  0  0  0  0  0
  -17.5242   15.0573   25.0710 C   0  0  0  0  0  0  0  0  0  0  0  0
  -18.5292   15.9451   25.6667 N   0  0  0  0  0  0  0  0  0  0  0  0
  -18.9913   15.4738   26.9886 C   0  0  0  0  0  0  0  0  0  0  0  0
  -18.9737   13.9392   27.1286 C   0  0  0  0  0  0  0  0  0  0  0  0
  -21.9105   13.3435   26.7941 O   0  0  0  0  0  0  0  0  0  0  0  0
  -25.8308   14.2187   26.4883 H   0  0  0  0  0  0  0  0  0  0  0  0
  -25.9811   15.4509   27.6158 H   0  0  0  0  0  0  0  0  0  0  0  0
  -24.4977   11.3776   26.6565 H   0  0  0  0  0  0  0  0  0  0  0  0
  -22.3362   10.4501   25.3717 H   0  0  0  0  0  0  0  0  0  0  0  0
  -18.6982   13.7796   23.7897 H   0  0  0  0  0  0  0  0  0  0  0  0
  -17.3660   12.9221   24.6560 H   0  0  0  0  0  0  0  0  0  0  0  0
  -16.6642   14.9292   25.7669 H   0  0  0  0  0  0  0  0  0  0  0  0
  -17.1375   15.5080   24.1312 H   0  0  0  0  0  0  0  0  0  0  0  0
  -18.0997   16.8923   25.7860 H   0  0  0  0  0  0  0  0  0  0  0  0
  -18.3664   15.9184   27.7955 H   0  0  0  0  0  0  0  0  0  0  0  0
  -20.0322   15.8324   27.1374 H   0  0  0  0  0  0  0  0  0  0  0  0
  -18.0018   13.6276   27.5700 H   0  0  0  0  0  0  0  0  0  0  0  0
  -19.7590   13.6038   27.8362 H   0  0  0  0  0  0  0  0  0  0  0  0
  1  2  1  0
  2  3  2  0
  2  4  2  0
  2  5  1  0
  5  6  2  0
  6  7  1  0
  7  8  2  0
  8  9  1  0
  9 10  2  0
  9 11  1  0
 11 12  1  0
 12 13  1  0
 13 14  1  0
 14 15  1  0
 15 16  1  0
  8 17  1  0
 17  5  1  0
 16 11  1  0
  1 18  1  0
  1 19  1  0
  6 20  1  0
  7 21  1  0
 12 22  1  0
 12 23  1  0
 13 24  1  0
 13 25  1  0
 14 26  1  0
 15 27  1  0
 15 28  1  0
 16 29  1  0
 16 30  1  0
M  END
>  <CHROM.1>  (1) 
176.78529801,-76.03250022,5.64342221,-2.73074620,0.42023523,0.49483547

>  <Name>  (1) 
NS(=O)(=O)c1ccc(C(=O)N2CCNCC2)o1

>  <RI>  (1) 
3.24535e+07

>  <Rbt.Current_Directory>  (1) 
/data/out

>  <Rbt.Executable>  (1) 
rbdock ($Id: //depot/dev/client3/rdock/2013.1/src/exe/rbdock.cxx#4 $)

>  <Rbt.Library>  (1) 
libRbt.so (2013.1, Build901 2013/11/27)

>  <Rbt.Parameter_File>  (1) 
/python_libraries/phenodiscovery/docking/templates/RDOCK_TETHER.conf

>  <Rbt.Receptor>  (1) 
/data/out/rdock-opt/grid/rdock-grid.prm

>  <SCORE>  (1) 
-17.7071

>  <SCORE.INTER>  (1) 
-17.8968

>  <SCORE.INTER.CONST>  (1) 
1

>  <SCORE.INTER.POLAR>  (1) 
-2.38532

>  <SCORE.INTER.REPUL>  (1) 
0.0232127

>  <SCORE.INTER.ROT>  (1) 
3

>  <SCORE.INTER.VDW>  (1) 
-18.3027

>  <SCORE.INTER.norm>  (1) 
-1.05275

>  <SCORE.INTRA>  (1) 
0.189231

>  <SCORE.INTRA.DIHEDRAL>  (1) 
-0.120136

>  <SCORE.INTRA.DIHEDRAL.0>  (1) 
1.47913

>  <SCORE.INTRA.POLAR>  (1) 
0

>  <SCORE.INTRA.POLAR.0>  (1) 
0

>  <SCORE.INTRA.REPUL>  (1) 
0

>  <SCORE.INTRA.REPUL.0>  (1) 
0

>  <SCORE.INTRA.VDW>  (1) 
0.249299

>  <SCORE.INTRA.VDW.0>  (1) 
-1.83318

>  <SCORE.INTRA.norm>  (1) 
0.0111312

>  <SCORE.RESTR>  (1) 
0.000431878

>  <SCORE.RESTR.CAVITY>  (1) 
0.000431878

>  <SCORE.RESTR.norm>  (1) 
2.54046e-05

>  <SCORE.SYSTEM>  (1) 
0

>  <SCORE.SYSTEM.CONST>  (1) 
0

>  <SCORE.SYSTEM.DIHEDRAL>  (1) 
0

>  <SCORE.SYSTEM.norm>  (1) 
0

>  <SCORE.heavy>  (1) 
17

>  <SCORE.norm>  (1) 
-1.04159

>  <TETHERED ATOMS>  (1) 
9,10,14,8,11,6,5,7,17,12,13,16,15

>  <skeledock_score>  (1) 
90

$$$$
