OCc1cccc(NCc2cc[nH]n2)c1
     RDKit          3D

 28 29  0  0  0  0  0  0  0  0999 V2000
  -25.6968   13.9148   25.9053 O   0  0  0  0  0  0  0  0  0  0  0  0
  -25.0779   13.3755   27.0416 C   0  0  0  0  0  0  0  0  0  0  0  0
  -23.7263   12.7870   26.7186 C   0  0  0  0  0  0  0  0  0  0  0  0
  -23.6024   11.9681   25.5839 C   0  0  0  0  0  0  0  0  0  0  0  0
  -22.3701   11.4044   25.2479 C   0  0  0  0  0  0  0  0  0  0  0  0
  -21.2538   11.6363   26.0496 C   0  0  0  0  0  0  0  0  0  0  0  0
  -21.3543   12.4501   27.1827 C   0  0  0  0  0  0  0  0  0  0  0  0
  -20.2111   12.6016   28.0318 N   0  0  0  0  0  0  0  0  0  0  0  0
  -18.8630   12.7988   27.5149 C   0  0  0  0  0  0  0  0  0  0  0  0
  -18.8548   13.8395   26.4376 C   0  0  0  0  0  0  0  0  0  0  0  0
  -18.5197   13.6463   25.1087 C   0  0  0  0  0  0  0  0  0  0  0  0
  -18.6233   14.9013   24.5477 C   0  0  0  0  0  0  0  0  0  0  0  0
  -18.9888   15.7726   25.5046 N   0  0  0  0  0  0  0  0  0  0  0  0
  -19.1298   15.1386   26.6568 N   0  0  0  0  0  0  0  0  0  0  0  0
  -22.5874   13.0333   27.5142 C   0  0  0  0  0  0  0  0  0  0  0  0
  -26.5689   14.2760   26.2115 H   0  0  0  0  0  0  0  0  0  0  0  0
  -25.7236   12.5759   27.4686 H   0  0  0  0  0  0  0  0  0  0  0  0
  -24.9472   14.1746   27.8051 H   0  0  0  0  0  0  0  0  0  0  0  0
  -24.4633   11.7697   24.9570 H   0  0  0  0  0  0  0  0  0  0  0  0
  -22.2846   10.7751   24.3714 H   0  0  0  0  0  0  0  0  0  0  0  0
  -20.3076   11.1770   25.7918 H   0  0  0  0  0  0  0  0  0  0  0  0
  -20.3001   12.3002   29.0290 H   0  0  0  0  0  0  0  0  0  0  0  0
  -18.1760   13.0866   28.3389 H   0  0  0  0  0  0  0  0  0  0  0  0
  -18.4959   11.8436   27.0823 H   0  0  0  0  0  0  0  0  0  0  0  0
  -18.2369   12.7232   24.6205 H   0  0  0  0  0  0  0  0  0  0  0  0
  -18.4382   15.1623   23.5142 H   0  0  0  0  0  0  0  0  0  0  0  0
  -19.1408   16.7972   25.3759 H   0  0  0  0  0  0  0  0  0  0  0  0
  -22.6550   13.6452   28.4040 H   0  0  0  0  0  0  0  0  0  0  0  0
  1  2  1  0
  2  3  1  0
  3  4  2  0
  4  5  1  0
  5  6  2  0
  6  7  1  0
  7  8  1  0
  8  9  1  0
  9 10  1  0
 10 11  1  0
 11 12  2  0
 12 13  1  0
 13 14  1  0
  7 15  2  0
 15  3  1  0
 14 10  2  0
  1 16  1  0
  2 17  1  0
  2 18  1  0
  4 19  1  0
  5 20  1  0
  6 21  1  0
  8 22  1  0
  9 23  1  0
  9 24  1  0
 11 25  1  0
 12 26  1  0
 13 27  1  0
 15 28  1  0
M  END
>  <CHROM.1>  (1) 
-179.89078605,-45.62740596,42.94480898,46.50084255,-116.46623629,-2.80089542
-0.46408648,-1.12827701

>  <Name>  (1) 
OCc1cccc(NCc2cc[nH]n2)c1

>  <RI>  (1) 
1.81892e+07

>  <Rbt.Current_Directory>  (1) 
/data/out

>  <Rbt.Executable>  (1) 
rbdock ($Id: //depot/dev/client3/rdock/2013.1/src/exe/rbdock.cxx#4 $)

>  <Rbt.Library>  (1) 
libRbt.so (2013.1, Build901 2013/11/27)

>  <Rbt.Parameter_File>  (1) 
/python_libraries/phenodiscovery/docking/templates/RDOCK_TETHER.conf

>  <Rbt.Receptor>  (1) 
/data/out/rdock-opt/grid/rdock-grid.prm

>  <SCORE>  (1) 
-15.5984

>  <SCORE.INTER>  (1) 
-15.2198

>  <SCORE.INTER.CONST>  (1) 
1

>  <SCORE.INTER.POLAR>  (1) 
-1.36783

>  <SCORE.INTER.REPUL>  (1) 
0

>  <SCORE.INTER.ROT>  (1) 
4

>  <SCORE.INTER.VDW>  (1) 
-19.9692

>  <SCORE.INTER.norm>  (1) 
-1.01465

>  <SCORE.INTRA>  (1) 
-0.378575

>  <SCORE.INTRA.DIHEDRAL>  (1) 
-1.87715

>  <SCORE.INTRA.DIHEDRAL.0>  (1) 
13.5407

>  <SCORE.INTRA.POLAR>  (1) 
0

>  <SCORE.INTRA.POLAR.0>  (1) 
0

>  <SCORE.INTRA.REPUL>  (1) 
0

>  <SCORE.INTRA.REPUL.0>  (1) 
0

>  <SCORE.INTRA.VDW>  (1) 
0.56

>  <SCORE.INTRA.VDW.0>  (1) 
-1.95325

>  <SCORE.INTRA.norm>  (1) 
-0.0252383

>  <SCORE.RESTR>  (1) 
0

>  <SCORE.RESTR.CAVITY>  (1) 
0

>  <SCORE.RESTR.norm>  (1) 
0

>  <SCORE.SYSTEM>  (1) 
0

>  <SCORE.SYSTEM.CONST>  (1) 
0

>  <SCORE.SYSTEM.DIHEDRAL>  (1) 
0

>  <SCORE.SYSTEM.norm>  (1) 
0

>  <SCORE.heavy>  (1) 
15

>  <SCORE.norm>  (1) 
-1.03989

>  <TETHERED ATOMS>  (1) 
8,12,14,7,13,10,11,9,4,6,5,15,3

>  <skeledock_score>  (1) 
94

$$$$
