CC[C@@H](O)CNC(=O)CCn1c(C)nc2ccccc21
     RDKit          3D

 41 42  0  0  0  0  0  0  0  0999 V2000
  -14.6486   20.9405   25.9304 C   0  0  0  0  0  0  0  0  0  0  0  0
  -14.0729   19.8029   25.0889 C   0  0  0  0  0  0  0  0  0  0  0  0
  -15.1406   18.7552   24.7272 C   0  0  0  0  0  0  0  0  0  0  0  0
  -14.7412   18.0363   23.5871 O   0  0  0  0  0  0  0  0  0  0  0  0
  -15.3395   17.7743   25.8890 C   0  0  0  0  0  0  0  0  0  0  0  0
  -16.5746   17.0130   25.6998 N   0  0  0  0  0  0  0  0  0  0  0  0
  -17.2067   16.2664   26.7492 C   0  0  0  0  0  0  0  0  0  0  0  0
  -16.6774   16.1951   27.8916 O   0  0  0  0  0  0  0  0  0  0  0  0
  -18.5091   15.5654   26.4953 C   0  0  0  0  0  0  0  0  0  0  0  0
  -18.3657   14.0547   26.7071 C   0  0  0  0  0  0  0  0  0  0  0  0
  -19.3688   13.3318   25.9219 N   0  0  0  0  0  0  0  0  0  0  0  0
  -19.2404   12.8559   24.6539 C   0  0  0  0  0  0  0  0  0  0  0  0
  -18.0056   13.0066   23.8222 C   0  0  0  0  0  0  0  0  0  0  0  0
  -20.3439   12.2006   24.2086 N   0  0  0  0  0  0  0  0  0  0  0  0
  -21.1899   12.2892   25.2511 C   0  0  0  0  0  0  0  0  0  0  0  0
  -22.4864   11.7875   25.3324 C   0  0  0  0  0  0  0  0  0  0  0  0
  -23.1994   12.0070   26.5253 C   0  0  0  0  0  0  0  0  0  0  0  0
  -22.6044   12.7138   27.5954 C   0  0  0  0  0  0  0  0  0  0  0  0
  -21.2902   13.2068   27.4826 C   0  0  0  0  0  0  0  0  0  0  0  0
  -20.6116   12.9696   26.2849 C   0  0  0  0  0  0  0  0  0  0  0  0
  -15.4092   21.5068   25.3528 H   0  0  0  0  0  0  0  0  0  0  0  0
  -13.8341   21.6393   26.2153 H   0  0  0  0  0  0  0  0  0  0  0  0
  -15.1120   20.5401   26.8573 H   0  0  0  0  0  0  0  0  0  0  0  0
  -13.2586   19.3179   25.6707 H   0  0  0  0  0  0  0  0  0  0  0  0
  -13.6297   20.2266   24.1611 H   0  0  0  0  0  0  0  0  0  0  0  0
  -16.1132   19.2740   24.5469 H   0  0  0  0  0  0  0  0  0  0  0  0
  -13.9441   17.5025   23.8422 H   0  0  0  0  0  0  0  0  0  0  0  0
  -14.4595   17.0989   25.9620 H   0  0  0  0  0  0  0  0  0  0  0  0
  -15.4139   18.3347   26.8461 H   0  0  0  0  0  0  0  0  0  0  0  0
  -17.0093   17.0132   24.7494 H   0  0  0  0  0  0  0  0  0  0  0  0
  -18.8389   15.7699   25.4530 H   0  0  0  0  0  0  0  0  0  0  0  0
  -19.2846   15.9661   27.1826 H   0  0  0  0  0  0  0  0  0  0  0  0
  -18.4754   13.8084   27.7849 H   0  0  0  0  0  0  0  0  0  0  0  0
  -17.3500   13.7190   26.4034 H   0  0  0  0  0  0  0  0  0  0  0  0
  -18.2014   12.6733   22.7814 H   0  0  0  0  0  0  0  0  0  0  0  0
  -17.6897   14.0702   23.8011 H   0  0  0  0  0  0  0  0  0  0  0  0
  -17.1907   12.3872   24.2507 H   0  0  0  0  0  0  0  0  0  0  0  0
  -22.9325   11.2500   24.5056 H   0  0  0  0  0  0  0  0  0  0  0  0
  -24.2102   11.6332   26.6237 H   0  0  0  0  0  0  0  0  0  0  0  0
  -23.1632   12.8785   28.5073 H   0  0  0  0  0  0  0  0  0  0  0  0
  -20.8329   13.7538   28.2962 H   0  0  0  0  0  0  0  0  0  0  0  0
  1  2  1  0
  2  3  1  0
  3  4  1  0
  3  5  1  0
  5  6  1  0
  6  7  1  0
  7  8  2  0
  7  9  1  0
  9 10  1  0
 10 11  1  0
 11 12  1  0
 12 13  1  0
 12 14  2  0
 14 15  1  0
 15 16  2  0
 16 17  1  0
 17 18  2  0
 18 19  1  0
 19 20  2  0
 20 11  1  0
 20 15  1  0
  1 21  1  0
  1 22  1  0
  1 23  1  0
  2 24  1  0
  2 25  1  0
  3 26  1  0
  4 27  1  0
  5 28  1  0
  5 29  1  0
  6 30  1  0
  9 31  1  0
  9 32  1  0
 10 33  1  0
 10 34  1  0
 13 35  1  0
 13 36  1  0
 13 37  1  0
 16 38  1  0
 17 39  1  0
 18 40  1  0
 19 41  1  0
M  END
>  <CHROM.1>  (1) 
157.77603397,66.92051148,165.05803768,-164.17658403,119.20558451,-154.64859075
91.01857628,-2.71407152,0.53798644,1.00341181

>  <Name>  (1) 
CC[C@@H](O)CNC(=O)CCn1c(C)nc2ccccc21

>  <RI>  (1) 
1.73201e+07

>  <Rbt.Current_Directory>  (1) 
/data/out

>  <Rbt.Executable>  (1) 
rbdock ($Id: //depot/dev/client3/rdock/2013.1/src/exe/rbdock.cxx#4 $)

>  <Rbt.Library>  (1) 
libRbt.so (2013.1, Build901 2013/11/27)

>  <Rbt.Parameter_File>  (1) 
/python_libraries/phenodiscovery/docking/templates/RDOCK_TETHER.conf

>  <Rbt.Receptor>  (1) 
/data/out/rdock-opt/grid/rdock-grid.prm

>  <SCORE>  (1) 
-15.8074

>  <SCORE.INTER>  (1) 
-17.921

>  <SCORE.INTER.CONST>  (1) 
1

>  <SCORE.INTER.POLAR>  (1) 
-2.20925

>  <SCORE.INTER.REPUL>  (1) 
0.00410089

>  <SCORE.INTER.ROT>  (1) 
6

>  <SCORE.INTER.VDW>  (1) 
-21.83

>  <SCORE.INTER.norm>  (1) 
-0.896049

>  <SCORE.INTRA>  (1) 
2.11353

>  <SCORE.INTRA.DIHEDRAL>  (1) 
1.09445

>  <SCORE.INTRA.DIHEDRAL.0>  (1) 
9.96212

>  <SCORE.INTRA.POLAR>  (1) 
0

>  <SCORE.INTRA.POLAR.0>  (1) 
0

>  <SCORE.INTRA.REPUL>  (1) 
0

>  <SCORE.INTRA.REPUL.0>  (1) 
0

>  <SCORE.INTRA.VDW>  (1) 
1.56631

>  <SCORE.INTRA.VDW.0>  (1) 
-1.30744

>  <SCORE.INTRA.norm>  (1) 
0.105677

>  <SCORE.RESTR>  (1) 
0

>  <SCORE.RESTR.CAVITY>  (1) 
0

>  <SCORE.RESTR.norm>  (1) 
0

>  <SCORE.SYSTEM>  (1) 
0

>  <SCORE.SYSTEM.CONST>  (1) 
0

>  <SCORE.SYSTEM.DIHEDRAL>  (1) 
0

>  <SCORE.SYSTEM.norm>  (1) 
0

>  <SCORE.heavy>  (1) 
20

>  <SCORE.norm>  (1) 
-0.790372

>  <TETHERED ATOMS>  (1) 
11,6,10,8,7,9,20,17,19,13,14,15,18,16,12

>  <skeledock_score>  (1) 
115

$$$$
