NS(=O)(=O)CCCN1CCN(C(=O)c2ccco2)CC1
     RDKit          3D

 39 40  0  0  0  0  0  0  0  0999 V2000
  -14.5738   19.3110   23.3834 N   0  0  0  0  0  0  0  0  0  0  0  0
  -14.5000   19.4917   25.1023 S   0  0  0  0  0  0  0  0  0  0  0  0
  -13.3548   18.6818   25.6422 O   0  0  0  0  0  0  0  0  0  0  0  0
  -14.2771   20.9401   25.4339 O   0  0  0  0  0  0  0  0  0  0  0  0
  -16.0279   18.9517   25.8560 C   0  0  0  0  0  0  0  0  0  0  0  0
  -16.0001   17.4457   26.1447 C   0  0  0  0  0  0  0  0  0  0  0  0
  -17.4141   16.8525   26.3225 C   0  0  0  0  0  0  0  0  0  0  0  0
  -17.3865   15.3767   26.4074 N   0  0  0  0  0  0  0  0  0  0  0  0
  -17.2726   14.7299   25.0702 C   0  0  0  0  0  0  0  0  0  0  0  0
  -18.5685   14.0742   24.5666 C   0  0  0  0  0  0  0  0  0  0  0  0
  -19.2138   13.2670   25.6068 N   0  0  0  0  0  0  0  0  0  0  0  0
  -20.3643   12.4812   25.2555 C   0  0  0  0  0  0  0  0  0  0  0  0
  -20.3514   11.8116   24.1877 O   0  0  0  0  0  0  0  0  0  0  0  0
  -21.5886   12.5000   26.0752 C   0  0  0  0  0  0  0  0  0  0  0  0
  -22.6962   11.6965   25.8863 C   0  0  0  0  0  0  0  0  0  0  0  0
  -23.5989   12.0726   26.8574 C   0  0  0  0  0  0  0  0  0  0  0  0
  -22.9909   13.0816   27.5756 C   0  0  0  0  0  0  0  0  0  0  0  0
  -21.7967   13.3161   27.0835 O   0  0  0  0  0  0  0  0  0  0  0  0
  -18.7301   13.3666   26.9845 C   0  0  0  0  0  0  0  0  0  0  0  0
  -18.4581   14.8377   27.2798 C   0  0  0  0  0  0  0  0  0  0  0  0
  -15.3882   19.8731   23.0490 H   0  0  0  0  0  0  0  0  0  0  0  0
  -14.7915   18.3091   23.1844 H   0  0  0  0  0  0  0  0  0  0  0  0
  -16.8664   19.1859   25.1660 H   0  0  0  0  0  0  0  0  0  0  0  0
  -16.1723   19.5279   26.7914 H   0  0  0  0  0  0  0  0  0  0  0  0
  -15.5094   16.9391   25.2852 H   0  0  0  0  0  0  0  0  0  0  0  0
  -15.3801   17.2378   27.0441 H   0  0  0  0  0  0  0  0  0  0  0  0
  -17.9956   17.1635   25.4260 H   0  0  0  0  0  0  0  0  0  0  0  0
  -17.9376   17.2873   27.2039 H   0  0  0  0  0  0  0  0  0  0  0  0
  -16.4987   13.9360   25.1470 H   0  0  0  0  0  0  0  0  0  0  0  0
  -16.9045   15.4306   24.2888 H   0  0  0  0  0  0  0  0  0  0  0  0
  -18.3223   13.4350   23.6910 H   0  0  0  0  0  0  0  0  0  0  0  0
  -19.2728   14.8673   24.2342 H   0  0  0  0  0  0  0  0  0  0  0  0
  -22.8334   10.9315   25.1333 H   0  0  0  0  0  0  0  0  0  0  0  0
  -24.5856   11.6610   27.0220 H   0  0  0  0  0  0  0  0  0  0  0  0
  -23.4200   13.6101   28.4162 H   0  0  0  0  0  0  0  0  0  0  0  0
  -17.7917   12.7803   27.0902 H   0  0  0  0  0  0  0  0  0  0  0  0
  -19.4579   12.9586   27.7145 H   0  0  0  0  0  0  0  0  0  0  0  0
  -19.4084   15.4010   27.1392 H   0  0  0  0  0  0  0  0  0  0  0  0
  -18.1460   14.9293   28.3419 H   0  0  0  0  0  0  0  0  0  0  0  0
  1  2  1  0
  2  3  2  0
  2  4  2  0
  2  5  1  0
  5  6  1  0
  6  7  1  0
  7  8  1  0
  8  9  1  0
  9 10  1  0
 10 11  1  0
 11 12  1  0
 12 13  2  0
 12 14  1  0
 14 15  2  0
 15 16  1  0
 16 17  2  0
 17 18  1  0
 11 19  1  0
 19 20  1  0
 20  8  1  0
 18 14  1  0
  1 21  1  0
  1 22  1  0
  5 23  1  0
  5 24  1  0
  6 25  1  0
  6 26  1  0
  7 27  1  0
  7 28  1  0
  9 29  1  0
  9 30  1  0
 10 31  1  0
 10 32  1  0
 15 33  1  0
 16 34  1  0
 17 35  1  0
 19 36  1  0
 19 37  1  0
 20 38  1  0
 20 39  1  0
M  END
>  <CHROM.1>  (1) 
179.06980521,87.28670225,-160.00357438,171.85712309,-79.94654398,-174.01248611
-0.27973312,-0.47989483,-2.26439052

>  <Name>  (1) 
NS(=O)(=O)CCCN1CCN(C(=O)c2ccco2)CC1

>  <RI>  (1) 
4.19317e+07

>  <Rbt.Current_Directory>  (1) 
/data/out

>  <Rbt.Executable>  (1) 
rbdock ($Id: //depot/dev/client3/rdock/2013.1/src/exe/rbdock.cxx#4 $)

>  <Rbt.Library>  (1) 
libRbt.so (2013.1, Build901 2013/11/27)

>  <Rbt.Parameter_File>  (1) 
/python_libraries/phenodiscovery/docking/templates/RDOCK_TETHER.conf

>  <Rbt.Receptor>  (1) 
/data/out/rdock-opt/grid/rdock-grid.prm

>  <SCORE>  (1) 
-16.986

>  <SCORE.INTER>  (1) 
-16.6821

>  <SCORE.INTER.CONST>  (1) 
1

>  <SCORE.INTER.POLAR>  (1) 
-2.29956

>  <SCORE.INTER.REPUL>  (1) 
0.066797

>  <SCORE.INTER.ROT>  (1) 
6

>  <SCORE.INTER.VDW>  (1) 
-20.5976

>  <SCORE.INTER.norm>  (1) 
-0.834105

>  <SCORE.INTRA>  (1) 
-0.334115

>  <SCORE.INTRA.DIHEDRAL>  (1) 
-0.648619

>  <SCORE.INTRA.DIHEDRAL.0>  (1) 
4.941

>  <SCORE.INTRA.POLAR>  (1) 
0

>  <SCORE.INTRA.POLAR.0>  (1) 
0

>  <SCORE.INTRA.REPUL>  (1) 
0

>  <SCORE.INTRA.REPUL.0>  (1) 
0

>  <SCORE.INTRA.VDW>  (1) 
-0.00980563

>  <SCORE.INTRA.VDW.0>  (1) 
0.259606

>  <SCORE.INTRA.norm>  (1) 
-0.0167058

>  <SCORE.RESTR>  (1) 
0.0301738

>  <SCORE.RESTR.CAVITY>  (1) 
0.0301738

>  <SCORE.RESTR.norm>  (1) 
0.00150869

>  <SCORE.SYSTEM>  (1) 
0

>  <SCORE.SYSTEM.CONST>  (1) 
0

>  <SCORE.SYSTEM.DIHEDRAL>  (1) 
0

>  <SCORE.SYSTEM.norm>  (1) 
0

>  <SCORE.heavy>  (1) 
20

>  <SCORE.norm>  (1) 
-0.849302

>  <TETHERED ATOMS>  (1) 
11,10,9,14,19,8,13,7,20,12,17,16,15,18

>  <skeledock_score>  (1) 
107

$$$$
