NC(=O)CCSc1ccccc1NCc1cc[nH]n1
     RDKit          3D

 35 36  0  0  0  0  0  0  0  0999 V2000
  -22.7725    8.7740   31.1965 N   0  0  0  0  0  0  0  0  0  0  0  0
  -22.9890    9.9638   31.9554 C   0  0  0  0  0  0  0  0  0  0  0  0
  -22.6923    9.9856   33.1796 O   0  0  0  0  0  0  0  0  0  0  0  0
  -23.5337   11.1986   31.2993 C   0  0  0  0  0  0  0  0  0  0  0  0
  -22.6238   11.6846   30.1683 C   0  0  0  0  0  0  0  0  0  0  0  0
  -23.1663   13.3008   29.4946 S   0  0  0  0  0  0  0  0  0  0  0  0
  -22.9346   12.8515   27.7681 C   0  0  0  0  0  0  0  0  0  0  0  0
  -24.0565   12.5152   26.9961 C   0  0  0  0  0  0  0  0  0  0  0  0
  -23.9056   12.1253   25.6630 C   0  0  0  0  0  0  0  0  0  0  0  0
  -22.6331   12.0586   25.0945 C   0  0  0  0  0  0  0  0  0  0  0  0
  -21.5089   12.3620   25.8632 C   0  0  0  0  0  0  0  0  0  0  0  0
  -21.6457   12.7600   27.2001 C   0  0  0  0  0  0  0  0  0  0  0  0
  -20.4602   12.8884   27.9962 N   0  0  0  0  0  0  0  0  0  0  0  0
  -19.1093   12.6555   27.4932 C   0  0  0  0  0  0  0  0  0  0  0  0
  -18.7027   13.6905   26.4900 C   0  0  0  0  0  0  0  0  0  0  0  0
  -18.9876   15.0432   26.5406 C   0  0  0  0  0  0  0  0  0  0  0  0
  -18.4713   15.5419   25.3633 C   0  0  0  0  0  0  0  0  0  0  0  0
  -17.9266   14.5283   24.6674 N   0  0  0  0  0  0  0  0  0  0  0  0
  -18.0657   13.3988   25.3407 N   0  0  0  0  0  0  0  0  0  0  0  0
  -22.9975    8.7417   30.1776 H   0  0  0  0  0  0  0  0  0  0  0  0
  -22.3807    7.9215   31.6546 H   0  0  0  0  0  0  0  0  0  0  0  0
  -23.6152   12.0026   32.0624 H   0  0  0  0  0  0  0  0  0  0  0  0
  -24.5570   11.0103   30.9146 H   0  0  0  0  0  0  0  0  0  0  0  0
  -21.5799   11.7495   30.5426 H   0  0  0  0  0  0  0  0  0  0  0  0
  -22.6308   10.9411   29.3429 H   0  0  0  0  0  0  0  0  0  0  0  0
  -25.0472   12.5461   27.4306 H   0  0  0  0  0  0  0  0  0  0  0  0
  -24.7760   11.8715   25.0718 H   0  0  0  0  0  0  0  0  0  0  0  0
  -22.5166   11.7502   24.0636 H   0  0  0  0  0  0  0  0  0  0  0  0
  -20.5238   12.2643   25.4246 H   0  0  0  0  0  0  0  0  0  0  0  0
  -20.5840   12.9221   29.0334 H   0  0  0  0  0  0  0  0  0  0  0  0
  -18.3895   12.6335   28.3357 H   0  0  0  0  0  0  0  0  0  0  0  0
  -19.0710   11.6601   27.0010 H   0  0  0  0  0  0  0  0  0  0  0  0
  -19.5088   15.5851   27.3184 H   0  0  0  0  0  0  0  0  0  0  0  0
  -18.4993   16.5717   25.0329 H   0  0  0  0  0  0  0  0  0  0  0  0
  -17.4647   14.6027   23.7344 H   0  0  0  0  0  0  0  0  0  0  0  0
  1  2  1  0
  2  3  2  0
  2  4  1  0
  4  5  1  0
  5  6  1  0
  6  7  1  0
  7  8  2  0
  8  9  1  0
  9 10  2  0
 10 11  1  0
 11 12  2  0
 12 13  1  0
 13 14  1  0
 14 15  1  0
 15 16  1  0
 16 17  2  0
 17 18  1  0
 18 19  1  0
 12  7  1  0
 19 15  2  0
  1 20  1  0
  1 21  1  0
  4 22  1  0
  4 23  1  0
  5 24  1  0
  5 25  1  0
  8 26  1  0
  9 27  1  0
 10 28  1  0
 11 29  1  0
 13 30  1  0
 14 31  1  0
 14 32  1  0
 16 33  1  0
 17 34  1  0
 18 35  1  0
M  END
>  <CHROM.1>  (1) 
-59.55994836,-173.02704481,-136.64376332,102.05655411,172.88006385,67.58157282
38.91478217,-2.92371766,-0.36206848,-1.43802121

>  <Name>  (1) 
NC(=O)CCSc1ccccc1NCc1cc[nH]n1

>  <RI>  (1) 
4.12374e+07

>  <Rbt.Current_Directory>  (1) 
/data/out

>  <Rbt.Executable>  (1) 
rbdock ($Id: //depot/dev/client3/rdock/2013.1/src/exe/rbdock.cxx#4 $)

>  <Rbt.Library>  (1) 
libRbt.so (2013.1, Build901 2013/11/27)

>  <Rbt.Parameter_File>  (1) 
/python_libraries/phenodiscovery/docking/templates/RDOCK_TETHER.conf

>  <Rbt.Receptor>  (1) 
/data/out/rdock-opt/grid/rdock-grid.prm

>  <SCORE>  (1) 
-15.326

>  <SCORE.INTER>  (1) 
-13.9521

>  <SCORE.INTER.CONST>  (1) 
1

>  <SCORE.INTER.POLAR>  (1) 
-0.959166

>  <SCORE.INTER.REPUL>  (1) 
0

>  <SCORE.INTER.ROT>  (1) 
7

>  <SCORE.INTER.VDW>  (1) 
-23.091

>  <SCORE.INTER.norm>  (1) 
-0.734324

>  <SCORE.INTRA>  (1) 
-1.37383

>  <SCORE.INTRA.DIHEDRAL>  (1) 
-11.5092

>  <SCORE.INTRA.DIHEDRAL.0>  (1) 
21.1947

>  <SCORE.INTRA.POLAR>  (1) 
0

>  <SCORE.INTRA.POLAR.0>  (1) 
0

>  <SCORE.INTRA.REPUL>  (1) 
0

>  <SCORE.INTRA.REPUL.0>  (1) 
0

>  <SCORE.INTRA.VDW>  (1) 
4.38077

>  <SCORE.INTRA.VDW.0>  (1) 
-4.81894

>  <SCORE.INTRA.norm>  (1) 
-0.0723068

>  <SCORE.RESTR>  (1) 
0

>  <SCORE.RESTR.CAVITY>  (1) 
0

>  <SCORE.RESTR.norm>  (1) 
0

>  <SCORE.SYSTEM>  (1) 
0

>  <SCORE.SYSTEM.CONST>  (1) 
0

>  <SCORE.SYSTEM.DIHEDRAL>  (1) 
0

>  <SCORE.SYSTEM.norm>  (1) 
0

>  <SCORE.heavy>  (1) 
19

>  <SCORE.norm>  (1) 
-0.80663

>  <TETHERED ATOMS>  (1) 
13,15,16,12,17,14,18,19,9,8,10,11,7

>  <skeledock_score>  (1) 
97

$$$$
