CS(=O)(=O)Nc1ccsc1C(=O)O
     RDKit          3D

 20 20  0  0  0  0  0  0  0  0999 V2000
  -17.6857   16.3657   25.6772 C   0  0  0  0  0  0  0  0  0  0  0  0
  -18.7696   15.5604   26.8372 S   0  0  0  0  0  0  0  0  0  0  0  0
  -17.9304   14.8121   27.8341 O   0  0  0  0  0  0  0  0  0  0  0  0
  -19.6020   16.5777   27.5654 O   0  0  0  0  0  0  0  0  0  0  0  0
  -19.7990   14.4357   26.0106 N   0  0  0  0  0  0  0  0  0  0  0  0
  -20.7929   13.6470   26.6851 C   0  0  0  0  0  0  0  0  0  0  0  0
  -20.9854   13.6850   28.0785 C   0  0  0  0  0  0  0  0  0  0  0  0
  -21.9574   12.8072   28.5350 C   0  0  0  0  0  0  0  0  0  0  0  0
  -22.5827   11.9830   27.2147 S   0  0  0  0  0  0  0  0  0  0  0  0
  -21.6301   12.7242   26.0424 C   0  0  0  0  0  0  0  0  0  0  0  0
  -21.7523   12.4345   24.6033 C   0  0  0  0  0  0  0  0  0  0  0  0
  -20.8522   12.7717   23.7905 O   0  0  0  0  0  0  0  0  0  0  0  0
  -22.8930   11.7929   24.1319 O   0  0  0  0  0  0  0  0  0  0  0  0
  -17.1199   15.6001   25.1076 H   0  0  0  0  0  0  0  0  0  0  0  0
  -16.9743   17.0172   26.2253 H   0  0  0  0  0  0  0  0  0  0  0  0
  -18.2773   16.9840   24.9722 H   0  0  0  0  0  0  0  0  0  0  0  0
  -19.6695   14.3488   24.9804 H   0  0  0  0  0  0  0  0  0  0  0  0
  -20.4227   14.3165   28.7508 H   0  0  0  0  0  0  0  0  0  0  0  0
  -22.2552   12.6748   29.5663 H   0  0  0  0  0  0  0  0  0  0  0  0
  -22.9980   11.5739   23.1484 H   0  0  0  0  0  0  0  0  0  0  0  0
  1  2  1  0
  2  3  2  0
  2  4  2  0
  2  5  1  0
  5  6  1  0
  6  7  1  0
  7  8  2  0
  8  9  1  0
  9 10  1  0
 10 11  1  0
 11 12  2  0
 11 13  1  0
 10  6  2  0
  1 14  1  0
  1 15  1  0
  1 16  1  0
  5 17  1  0
  7 18  1  0
  8 19  1  0
 13 20  1  0
M  END
>  <CHROM.1>  (1) 
-179.23275009,-2.26173599,18.25570706,-179.39103837,-1.57033587,-0.66345103
-1.70527969

>  <Name>  (1) 
CS(=O)(=O)Nc1ccsc1C(=O)O

>  <RI>  (1) 
3.33912e+07

>  <Rbt.Current_Directory>  (1) 
/data/out

>  <Rbt.Executable>  (1) 
rbdock ($Id: //depot/dev/client3/rdock/2013.1/src/exe/rbdock.cxx#4 $)

>  <Rbt.Library>  (1) 
libRbt.so (2013.1, Build901 2013/11/27)

>  <Rbt.Parameter_File>  (1) 
/python_libraries/phenodiscovery/docking/templates/RDOCK_TETHER.conf

>  <Rbt.Receptor>  (1) 
/data/out/rdock-opt/grid/rdock-grid.prm

>  <SCORE>  (1) 
-16.4111

>  <SCORE.INTER>  (1) 
-9.12326

>  <SCORE.INTER.CONST>  (1) 
1

>  <SCORE.INTER.POLAR>  (1) 
-0.802998

>  <SCORE.INTER.REPUL>  (1) 
0

>  <SCORE.INTER.ROT>  (1) 
3

>  <SCORE.INTER.VDW>  (1) 
-14.7931

>  <SCORE.INTER.norm>  (1) 
-0.701789

>  <SCORE.INTRA>  (1) 
-7.2878

>  <SCORE.INTRA.DIHEDRAL>  (1) 
-15.0459

>  <SCORE.INTRA.DIHEDRAL.0>  (1) 
17.362

>  <SCORE.INTRA.POLAR>  (1) 
0

>  <SCORE.INTRA.POLAR.0>  (1) 
0

>  <SCORE.INTRA.REPUL>  (1) 
0

>  <SCORE.INTRA.REPUL.0>  (1) 
0

>  <SCORE.INTRA.VDW>  (1) 
0.235168

>  <SCORE.INTRA.VDW.0>  (1) 
-2.31116

>  <SCORE.INTRA.norm>  (1) 
-0.5606

>  <SCORE.RESTR>  (1) 
0

>  <SCORE.RESTR.CAVITY>  (1) 
0

>  <SCORE.RESTR.norm>  (1) 
0

>  <SCORE.SYSTEM>  (1) 
0

>  <SCORE.SYSTEM.CONST>  (1) 
0

>  <SCORE.SYSTEM.DIHEDRAL>  (1) 
0

>  <SCORE.SYSTEM.norm>  (1) 
0

>  <SCORE.heavy>  (1) 
13

>  <SCORE.norm>  (1) 
-1.26239

>  <TETHERED ATOMS>  (1) 
6,8,10,11,9,7,13,12

>  <skeledock_score>  (1) 
57

$$$$
