CCn1cc(NC(=O)C2(CC(C)C)CCC2)cn1
     RDKit          3D

 41 42  0  0  0  0  0  0  0  0999 V2000
  -20.6431   13.3266   28.0073 C   0  0  0  0  0  0  0  0  0  0  0  0
  -19.1420   13.1542   27.8017 C   0  0  0  0  0  0  0  0  0  0  0  0
  -18.6456   14.1276   26.8325 N   0  0  0  0  0  0  0  0  0  0  0  0
  -17.8174   15.1584   27.0950 C   0  0  0  0  0  0  0  0  0  0  0  0
  -17.6223   15.8405   25.9104 C   0  0  0  0  0  0  0  0  0  0  0  0
  -16.9067   17.0664   25.6993 N   0  0  0  0  0  0  0  0  0  0  0  0
  -16.0361   17.6670   26.6740 C   0  0  0  0  0  0  0  0  0  0  0  0
  -15.8438   17.0990   27.7831 O   0  0  0  0  0  0  0  0  0  0  0  0
  -15.4271   19.0381   26.4375 C   0  0  0  0  0  0  0  0  0  0  0  0
  -16.5305   20.0342   25.9752 C   0  0  0  0  0  0  0  0  0  0  0  0
  -17.8983   19.9662   26.7265 C   0  0  0  0  0  0  0  0  0  0  0  0
  -18.9085   20.9565   26.1296 C   0  0  0  0  0  0  0  0  0  0  0  0
  -17.7220   20.2473   28.2256 C   0  0  0  0  0  0  0  0  0  0  0  0
  -14.1583   19.0279   25.5750 C   0  0  0  0  0  0  0  0  0  0  0  0
  -13.3356   19.5466   26.7431 C   0  0  0  0  0  0  0  0  0  0  0  0
  -14.5728   19.5153   27.6233 C   0  0  0  0  0  0  0  0  0  0  0  0
  -18.3739   15.1752   24.9639 C   0  0  0  0  0  0  0  0  0  0  0  0
  -18.9829   14.1261   25.5504 N   0  0  0  0  0  0  0  0  0  0  0  0
  -21.0020   12.5986   28.7648 H   0  0  0  0  0  0  0  0  0  0  0  0
  -20.8623   14.3550   28.3652 H   0  0  0  0  0  0  0  0  0  0  0  0
  -21.1854   13.1469   27.0549 H   0  0  0  0  0  0  0  0  0  0  0  0
  -18.9318   12.1276   27.4328 H   0  0  0  0  0  0  0  0  0  0  0  0
  -18.6252   13.2849   28.7778 H   0  0  0  0  0  0  0  0  0  0  0  0
  -17.4354   15.4103   28.0752 H   0  0  0  0  0  0  0  0  0  0  0  0
  -17.0192   17.5256   24.7686 H   0  0  0  0  0  0  0  0  0  0  0  0
  -16.1062   21.0603   26.0535 H   0  0  0  0  0  0  0  0  0  0  0  0
  -16.6902   19.8738   24.8853 H   0  0  0  0  0  0  0  0  0  0  0  0
  -18.3514   18.9587   26.6412 H   0  0  0  0  0  0  0  0  0  0  0  0
  -19.0699   20.7379   25.0529 H   0  0  0  0  0  0  0  0  0  0  0  0
  -19.8868   20.8688   26.6488 H   0  0  0  0  0  0  0  0  0  0  0  0
  -18.5409   22.0003   26.2318 H   0  0  0  0  0  0  0  0  0  0  0  0
  -17.3228   21.2719   28.3876 H   0  0  0  0  0  0  0  0  0  0  0  0
  -18.6961   20.1551   28.7520 H   0  0  0  0  0  0  0  0  0  0  0  0
  -17.0181   19.5147   28.6740 H   0  0  0  0  0  0  0  0  0  0  0  0
  -14.1738   19.7338   24.7181 H   0  0  0  0  0  0  0  0  0  0  0  0
  -13.8085   18.0159   25.2774 H   0  0  0  0  0  0  0  0  0  0  0  0
  -12.5573   18.8243   27.0739 H   0  0  0  0  0  0  0  0  0  0  0  0
  -12.9507   20.5761   26.5763 H   0  0  0  0  0  0  0  0  0  0  0  0
  -14.8436   20.5202   28.0105 H   0  0  0  0  0  0  0  0  0  0  0  0
  -14.4625   18.7695   28.4415 H   0  0  0  0  0  0  0  0  0  0  0  0
  -18.4821   15.4422   23.9212 H   0  0  0  0  0  0  0  0  0  0  0  0
  1  2  1  0
  2  3  1  0
  3  4  1  0
  4  5  2  0
  5  6  1  0
  6  7  1  0
  7  8  2  0
  7  9  1  0
  9 10  1  0
 10 11  1  0
 11 12  1  0
 11 13  1  0
  9 14  1  0
 14 15  1  0
 15 16  1  0
  5 17  1  0
 17 18  2  0
 18  3  1  0
 16  9  1  0
  1 19  1  0
  1 20  1  0
  1 21  1  0
  2 22  1  0
  2 23  1  0
  4 24  1  0
  6 25  1  0
 10 26  1  0
 10 27  1  0
 11 28  1  0
 12 29  1  0
 12 30  1  0
 12 31  1  0
 13 32  1  0
 13 33  1  0
 13 34  1  0
 14 35  1  0
 14 36  1  0
 15 37  1  0
 15 38  1  0
 16 39  1  0
 16 40  1  0
 17 41  1  0
M  END
>  <CHROM.1>  (1) 
112.23428472,12.81609112,48.20377913,42.60345005,-177.50625080,-0.11799942
0.82059041,1.68939577

>  <Name>  (1) 
CCn1cc(NC(=O)C2(CC(C)C)CCC2)cn1

>  <RI>  (1) 
1.41189e+07

>  <Rbt.Current_Directory>  (1) 
/data/out

>  <Rbt.Executable>  (1) 
rbdock ($Id: //depot/dev/client3/rdock/2013.1/src/exe/rbdock.cxx#4 $)

>  <Rbt.Library>  (1) 
libRbt.so (2013.1, Build901 2013/11/27)

>  <Rbt.Parameter_File>  (1) 
/python_libraries/phenodiscovery/docking/templates/RDOCK_TETHER.conf

>  <Rbt.Receptor>  (1) 
/data/out/rdock-opt/grid/rdock-grid.prm

>  <SCORE>  (1) 
-18.4928

>  <SCORE.INTER>  (1) 
-11.1518

>  <SCORE.INTER.CONST>  (1) 
1

>  <SCORE.INTER.POLAR>  (1) 
-1.15378

>  <SCORE.INTER.REPUL>  (1) 
0

>  <SCORE.INTER.ROT>  (1) 
5

>  <SCORE.INTER.VDW>  (1) 
-17.629

>  <SCORE.INTER.norm>  (1) 
-0.619545

>  <SCORE.INTRA>  (1) 
-7.34101

>  <SCORE.INTRA.DIHEDRAL>  (1) 
-14.8615

>  <SCORE.INTRA.DIHEDRAL.0>  (1) 
20.3851

>  <SCORE.INTRA.POLAR>  (1) 
0

>  <SCORE.INTRA.POLAR.0>  (1) 
0

>  <SCORE.INTRA.REPUL>  (1) 
0

>  <SCORE.INTRA.REPUL.0>  (1) 
0

>  <SCORE.INTRA.VDW>  (1) 
0.089729

>  <SCORE.INTRA.VDW.0>  (1) 
-1.14188

>  <SCORE.INTRA.norm>  (1) 
-0.407834

>  <SCORE.RESTR>  (1) 
0

>  <SCORE.RESTR.CAVITY>  (1) 
0

>  <SCORE.RESTR.norm>  (1) 
0

>  <SCORE.SYSTEM>  (1) 
0

>  <SCORE.SYSTEM.CONST>  (1) 
0

>  <SCORE.SYSTEM.DIHEDRAL>  (1) 
0

>  <SCORE.SYSTEM.norm>  (1) 
0

>  <SCORE.heavy>  (1) 
18

>  <SCORE.norm>  (1) 
-1.02738

>  <TETHERED ATOMS>  (1) 
8,7,6,5,9,15,14,16,17,2,18,1,3,4

>  <skeledock_score>  (1) 
103

$$$$
