CC(C)C(=O)Nc1cccc(NCc2cc[nH]n2)c1
     RDKit          3D

 37 38  0  0  0  0  0  0  0  0999 V2000
  -25.8554   16.2867   29.7134 C   0  0  0  0  0  0  0  0  0  0  0  0
  -26.5194   15.1957   28.8668 C   0  0  0  0  0  0  0  0  0  0  0  0
  -27.1478   14.1153   29.7523 C   0  0  0  0  0  0  0  0  0  0  0  0
  -25.5354   14.5878   27.8991 C   0  0  0  0  0  0  0  0  0  0  0  0
  -25.6993   14.7761   26.6630 O   0  0  0  0  0  0  0  0  0  0  0  0
  -24.4084   13.8303   28.3741 N   0  0  0  0  0  0  0  0  0  0  0  0
  -23.5653   13.0301   27.5282 C   0  0  0  0  0  0  0  0  0  0  0  0
  -24.1288   12.3634   26.4291 C   0  0  0  0  0  0  0  0  0  0  0  0
  -23.3273   11.6000   25.5779 C   0  0  0  0  0  0  0  0  0  0  0  0
  -21.9581   11.4927   25.8180 C   0  0  0  0  0  0  0  0  0  0  0  0
  -21.3736   12.1709   26.8929 C   0  0  0  0  0  0  0  0  0  0  0  0
  -19.9766   11.9902   27.1513 N   0  0  0  0  0  0  0  0  0  0  0  0
  -19.0969   13.0820   27.5485 C   0  0  0  0  0  0  0  0  0  0  0  0
  -18.8274   13.9941   26.3914 C   0  0  0  0  0  0  0  0  0  0  0  0
  -19.2743   13.8296   25.0919 C   0  0  0  0  0  0  0  0  0  0  0  0
  -18.7258   14.8936   24.4081 C   0  0  0  0  0  0  0  0  0  0  0  0
  -17.9937   15.6261   25.2659 N   0  0  0  0  0  0  0  0  0  0  0  0
  -18.0466   15.0872   26.4726 N   0  0  0  0  0  0  0  0  0  0  0  0
  -22.1745   12.9530   27.7398 C   0  0  0  0  0  0  0  0  0  0  0  0
  -25.3902   17.0510   29.0546 H   0  0  0  0  0  0  0  0  0  0  0  0
  -26.6173   16.7918   30.3446 H   0  0  0  0  0  0  0  0  0  0  0  0
  -25.0744   15.8618   30.3786 H   0  0  0  0  0  0  0  0  0  0  0  0
  -27.3393   15.6751   28.2862 H   0  0  0  0  0  0  0  0  0  0  0  0
  -27.9251   14.5645   30.4067 H   0  0  0  0  0  0  0  0  0  0  0  0
  -27.6318   13.3392   29.1213 H   0  0  0  0  0  0  0  0  0  0  0  0
  -26.3814   13.6298   30.3936 H   0  0  0  0  0  0  0  0  0  0  0  0
  -24.1405   13.9194   29.3796 H   0  0  0  0  0  0  0  0  0  0  0  0
  -25.1924   12.4318   26.2378 H   0  0  0  0  0  0  0  0  0  0  0  0
  -23.7713   11.0812   24.7382 H   0  0  0  0  0  0  0  0  0  0  0  0
  -21.3483   10.8821   25.1635 H   0  0  0  0  0  0  0  0  0  0  0  0
  -19.5232   11.1184   26.7945 H   0  0  0  0  0  0  0  0  0  0  0  0
  -19.5454   13.6469   28.3930 H   0  0  0  0  0  0  0  0  0  0  0  0
  -18.1291   12.6611   27.8955 H   0  0  0  0  0  0  0  0  0  0  0  0
  -19.9063   13.0442   24.6992 H   0  0  0  0  0  0  0  0  0  0  0  0
  -18.8465   15.1144   23.3558 H   0  0  0  0  0  0  0  0  0  0  0  0
  -17.4571   16.4902   25.0320 H   0  0  0  0  0  0  0  0  0  0  0  0
  -21.7132   13.4899   28.5574 H   0  0  0  0  0  0  0  0  0  0  0  0
  1  2  1  0
  2  3  1  0
  2  4  1  0
  4  5  2  0
  4  6  1  0
  6  7  1  0
  7  8  2  0
  8  9  1  0
  9 10  2  0
 10 11  1  0
 11 12  1  0
 12 13  1  0
 13 14  1  0
 14 15  1  0
 15 16  2  0
 16 17  1  0
 17 18  1  0
 11 19  2  0
 19  7  1  0
 18 14  2  0
  1 20  1  0
  1 21  1  0
  1 22  1  0
  2 23  1  0
  3 24  1  0
  3 25  1  0
  3 26  1  0
  6 27  1  0
  8 28  1  0
  9 29  1  0
 10 30  1  0
 12 31  1  0
 13 32  1  0
 13 33  1  0
 15 34  1  0
 16 35  1  0
 17 36  1  0
 19 37  1  0
M  END
>  <CHROM.1>  (1) 
-112.90753200,-34.47458622,139.87093103,-72.71584327,-2.99607821,-2.76987415
-0.39383360,-1.13166253

>  <Name>  (1) 
CC(C)C(=O)Nc1cccc(NCc2cc[nH]n2)c1

>  <RI>  (1) 
4.18354e+07

>  <Rbt.Current_Directory>  (1) 
/data/out

>  <Rbt.Executable>  (1) 
rbdock ($Id: //depot/dev/client3/rdock/2013.1/src/exe/rbdock.cxx#4 $)

>  <Rbt.Library>  (1) 
libRbt.so (2013.1, Build901 2013/11/27)

>  <Rbt.Parameter_File>  (1) 
/python_libraries/phenodiscovery/docking/templates/RDOCK_TETHER.conf

>  <Rbt.Receptor>  (1) 
/data/out/rdock-opt/grid/rdock-grid.prm

>  <SCORE>  (1) 
-17.0076

>  <SCORE.INTER>  (1) 
-16.5794

>  <SCORE.INTER.CONST>  (1) 
1

>  <SCORE.INTER.POLAR>  (1) 
-1.46281

>  <SCORE.INTER.REPUL>  (1) 
0

>  <SCORE.INTER.ROT>  (1) 
5

>  <SCORE.INTER.VDW>  (1) 
-22.0059

>  <SCORE.INTER.norm>  (1) 
-0.872602

>  <SCORE.INTRA>  (1) 
-0.428121

>  <SCORE.INTRA.DIHEDRAL>  (1) 
-4.83608

>  <SCORE.INTRA.DIHEDRAL.0>  (1) 
16.9409

>  <SCORE.INTRA.POLAR>  (1) 
0

>  <SCORE.INTRA.POLAR.0>  (1) 
0

>  <SCORE.INTRA.REPUL>  (1) 
0

>  <SCORE.INTRA.REPUL.0>  (1) 
0

>  <SCORE.INTRA.VDW>  (1) 
1.98992

>  <SCORE.INTRA.VDW.0>  (1) 
-3.49138

>  <SCORE.INTRA.norm>  (1) 
-0.0225327

>  <SCORE.RESTR>  (1) 
0

>  <SCORE.RESTR.CAVITY>  (1) 
0

>  <SCORE.RESTR.norm>  (1) 
0

>  <SCORE.SYSTEM>  (1) 
0

>  <SCORE.SYSTEM.CONST>  (1) 
0

>  <SCORE.SYSTEM.DIHEDRAL>  (1) 
0

>  <SCORE.SYSTEM.norm>  (1) 
0

>  <SCORE.heavy>  (1) 
19

>  <SCORE.norm>  (1) 
-0.895134

>  <TETHERED ATOMS>  (1) 
12,14,15,13,11,16,18,17,8,10,19,7,9

>  <skeledock_score>  (1) 
94

$$$$
