Cc1nc2ccccc2n1CCC(=O)NC(C)CC#N
     RDKit          3D

 38 39  0  0  0  0  0  0  0  0999 V2000
  -18.3163   13.0637   23.4710 C   0  0  0  0  0  0  0  0  0  0  0  0
  -19.3013   12.7707   24.5609 C   0  0  0  0  0  0  0  0  0  0  0  0
  -20.0734   11.6537   24.5497 N   0  0  0  0  0  0  0  0  0  0  0  0
  -20.8383   11.8012   25.6448 C   0  0  0  0  0  0  0  0  0  0  0  0
  -21.8742   10.9718   26.0665 C   0  0  0  0  0  0  0  0  0  0  0  0
  -22.5912   11.3511   27.2156 C   0  0  0  0  0  0  0  0  0  0  0  0
  -22.2553   12.5347   27.9096 C   0  0  0  0  0  0  0  0  0  0  0  0
  -21.2144   13.3614   27.4475 C   0  0  0  0  0  0  0  0  0  0  0  0
  -20.5289   12.9609   26.2959 C   0  0  0  0  0  0  0  0  0  0  0  0
  -19.5637   13.6017   25.6096 N   0  0  0  0  0  0  0  0  0  0  0  0
  -19.1569   15.0046   25.7484 C   0  0  0  0  0  0  0  0  0  0  0  0
  -17.7518   15.1259   26.3193 C   0  0  0  0  0  0  0  0  0  0  0  0
  -17.4099   16.5590   26.6022 C   0  0  0  0  0  0  0  0  0  0  0  0
  -18.3043   17.3420   27.0261 O   0  0  0  0  0  0  0  0  0  0  0  0
  -16.0800   17.0393   26.3661 N   0  0  0  0  0  0  0  0  0  0  0  0
  -15.7067   18.4453   26.5646 C   0  0  0  0  0  0  0  0  0  0  0  0
  -14.1910   18.5749   26.7706 C   0  0  0  0  0  0  0  0  0  0  0  0
  -16.1943   19.3138   25.3882 C   0  0  0  0  0  0  0  0  0  0  0  0
  -15.4654   19.0252   24.1440 C   0  0  0  0  0  0  0  0  0  0  0  0
  -14.8919   18.7973   23.1651 N   0  0  0  0  0  0  0  0  0  0  0  0
  -17.2869   13.0748   23.8805 H   0  0  0  0  0  0  0  0  0  0  0  0
  -18.3684   12.2762   22.6900 H   0  0  0  0  0  0  0  0  0  0  0  0
  -18.5457   14.0411   22.9993 H   0  0  0  0  0  0  0  0  0  0  0  0
  -22.1251   10.0689   25.5247 H   0  0  0  0  0  0  0  0  0  0  0  0
  -23.4016   10.7293   27.5731 H   0  0  0  0  0  0  0  0  0  0  0  0
  -22.8097   12.8137   28.7961 H   0  0  0  0  0  0  0  0  0  0  0  0
  -20.9664   14.2732   27.9730 H   0  0  0  0  0  0  0  0  0  0  0  0
  -19.8635   15.5553   26.4044 H   0  0  0  0  0  0  0  0  0  0  0  0
  -19.2078   15.4949   24.7521 H   0  0  0  0  0  0  0  0  0  0  0  0
  -17.0048   14.7266   25.6056 H   0  0  0  0  0  0  0  0  0  0  0  0
  -17.6872   14.5186   27.2476 H   0  0  0  0  0  0  0  0  0  0  0  0
  -15.3474   16.3547   26.0693 H   0  0  0  0  0  0  0  0  0  0  0  0
  -16.1910   18.8177   27.4946 H   0  0  0  0  0  0  0  0  0  0  0  0
  -13.8807   17.9809   27.6565 H   0  0  0  0  0  0  0  0  0  0  0  0
  -13.9167   19.6364   26.9491 H   0  0  0  0  0  0  0  0  0  0  0  0
  -13.6361   18.2027   25.8831 H   0  0  0  0  0  0  0  0  0  0  0  0
  -16.0710   20.3897   25.6358 H   0  0  0  0  0  0  0  0  0  0  0  0
  -17.2752   19.1335   25.2117 H   0  0  0  0  0  0  0  0  0  0  0  0
  1  2  1  0
  2  3  2  0
  3  4  1  0
  4  5  2  0
  5  6  1  0
  6  7  2  0
  7  8  1  0
  8  9  2  0
  9 10  1  0
 10 11  1  0
 11 12  1  0
 12 13  1  0
 13 14  2  0
 13 15  1  0
 15 16  1  0
 16 17  1  0
 16 18  1  0
 18 19  1  0
 19 20  3  0
 10  2  1  0
  9  4  1  0
  1 21  1  0
  1 22  1  0
  1 23  1  0
  5 24  1  0
  6 25  1  0
  7 26  1  0
  8 27  1  0
 11 28  1  0
 11 29  1  0
 12 30  1  0
 12 31  1  0
 15 32  1  0
 16 33  1  0
 17 34  1  0
 17 35  1  0
 17 36  1  0
 18 37  1  0
 18 38  1  0
M  END
>  <CHROM.1>  (1) 
-85.21425834,-173.50729573,36.12487147,158.19087901,-68.93235876,2.55792670
-0.66973032,-2.36809539

>  <Name>  (1) 
Cc1nc2ccccc2n1CCC(=O)NC(C)CC#N

>  <RI>  (1) 
2.0343e+07

>  <Rbt.Current_Directory>  (1) 
/data/out

>  <Rbt.Executable>  (1) 
rbdock ($Id: //depot/dev/client3/rdock/2013.1/src/exe/rbdock.cxx#4 $)

>  <Rbt.Library>  (1) 
libRbt.so (2013.1, Build901 2013/11/27)

>  <Rbt.Parameter_File>  (1) 
/python_libraries/phenodiscovery/docking/templates/RDOCK_TETHER.conf

>  <Rbt.Receptor>  (1) 
/data/out/rdock-opt/grid/rdock-grid.prm

>  <SCORE>  (1) 
-15.6063

>  <SCORE.INTER>  (1) 
-15.6665

>  <SCORE.INTER.CONST>  (1) 
1

>  <SCORE.INTER.POLAR>  (1) 
-1.41416

>  <SCORE.INTER.REPUL>  (1) 
0

>  <SCORE.INTER.ROT>  (1) 
5

>  <SCORE.INTER.VDW>  (1) 
-21.2584

>  <SCORE.INTER.norm>  (1) 
-0.783326

>  <SCORE.INTRA>  (1) 
0.0602473

>  <SCORE.INTRA.DIHEDRAL>  (1) 
-0.378223

>  <SCORE.INTRA.DIHEDRAL.0>  (1) 
5.89107

>  <SCORE.INTRA.POLAR>  (1) 
0

>  <SCORE.INTRA.POLAR.0>  (1) 
0

>  <SCORE.INTRA.REPUL>  (1) 
0

>  <SCORE.INTRA.REPUL.0>  (1) 
0

>  <SCORE.INTRA.VDW>  (1) 
0.249359

>  <SCORE.INTRA.VDW.0>  (1) 
-0.898426

>  <SCORE.INTRA.norm>  (1) 
0.00301237

>  <SCORE.RESTR>  (1) 
0

>  <SCORE.RESTR.CAVITY>  (1) 
0

>  <SCORE.RESTR.norm>  (1) 
0

>  <SCORE.SYSTEM>  (1) 
0

>  <SCORE.SYSTEM.CONST>  (1) 
0

>  <SCORE.SYSTEM.DIHEDRAL>  (1) 
0

>  <SCORE.SYSTEM.norm>  (1) 
0

>  <SCORE.heavy>  (1) 
20

>  <SCORE.norm>  (1) 
-0.780314

>  <TETHERED ATOMS>  (1) 
6,11,9,14,13,12,10,15,5,8,2,7,1,3,4

>  <skeledock_score>  (1) 
115

$$$$
