CN(C(N)=O)c1cccc(NCc2cc[nH]n2)c1
     RDKit          3D

 33 34  0  0  0  0  0  0  0  0999 V2000
  -24.4484   13.0366   29.7197 C   0  0  0  0  0  0  0  0  0  0  0  0
  -24.5410   13.4047   28.3038 N   0  0  0  0  0  0  0  0  0  0  0  0
  -25.5071   14.3826   27.8585 C   0  0  0  0  0  0  0  0  0  0  0  0
  -26.4895   14.9200   28.7498 N   0  0  0  0  0  0  0  0  0  0  0  0
  -25.4844   14.7912   26.6656 O   0  0  0  0  0  0  0  0  0  0  0  0
  -23.6376   12.7999   27.3585 C   0  0  0  0  0  0  0  0  0  0  0  0
  -24.1221   12.2804   26.1463 C   0  0  0  0  0  0  0  0  0  0  0  0
  -23.2461   11.6917   25.2319 C   0  0  0  0  0  0  0  0  0  0  0  0
  -21.8862   11.5989   25.5274 C   0  0  0  0  0  0  0  0  0  0  0  0
  -21.3869   12.1116   26.7298 C   0  0  0  0  0  0  0  0  0  0  0  0
  -20.0010   11.9296   27.0408 N   0  0  0  0  0  0  0  0  0  0  0  0
  -19.1709   12.9885   27.6004 C   0  0  0  0  0  0  0  0  0  0  0  0
  -18.8364   14.0082   26.5554 C   0  0  0  0  0  0  0  0  0  0  0  0
  -18.9727   13.8591   25.1863 C   0  0  0  0  0  0  0  0  0  0  0  0
  -18.4944   15.0435   24.6676 C   0  0  0  0  0  0  0  0  0  0  0  0
  -18.0944   15.8287   25.6835 N   0  0  0  0  0  0  0  0  0  0  0  0
  -18.2956   15.2085   26.8342 N   0  0  0  0  0  0  0  0  0  0  0  0
  -22.2625   12.7198   27.6425 C   0  0  0  0  0  0  0  0  0  0  0  0
  -24.2145   13.9353   30.3284 H   0  0  0  0  0  0  0  0  0  0  0  0
  -25.4085   12.5928   30.0569 H   0  0  0  0  0  0  0  0  0  0  0  0
  -23.6529   12.2798   29.8902 H   0  0  0  0  0  0  0  0  0  0  0  0
  -26.5550   14.6278   29.7486 H   0  0  0  0  0  0  0  0  0  0  0  0
  -27.1717   15.6303   28.4024 H   0  0  0  0  0  0  0  0  0  0  0  0
  -25.1789   12.3269   25.9159 H   0  0  0  0  0  0  0  0  0  0  0  0
  -23.6254   11.2920   24.3003 H   0  0  0  0  0  0  0  0  0  0  0  0
  -21.2187   11.1213   24.8209 H   0  0  0  0  0  0  0  0  0  0  0  0
  -19.5080   11.1125   26.6140 H   0  0  0  0  0  0  0  0  0  0  0  0
  -18.2230   12.5474   27.9760 H   0  0  0  0  0  0  0  0  0  0  0  0
  -19.6887   13.4667   28.4589 H   0  0  0  0  0  0  0  0  0  0  0  0
  -19.3620   13.0074   24.6444 H   0  0  0  0  0  0  0  0  0  0  0  0
  -18.4357   15.3114   23.6211 H   0  0  0  0  0  0  0  0  0  0  0  0
  -17.6839   16.7842   25.5954 H   0  0  0  0  0  0  0  0  0  0  0  0
  -21.8803   13.1093   28.5776 H   0  0  0  0  0  0  0  0  0  0  0  0
  1  2  1  0
  2  3  1  0
  3  4  1  0
  3  5  2  0
  2  6  1  0
  6  7  2  0
  7  8  1  0
  8  9  2  0
  9 10  1  0
 10 11  1  0
 11 12  1  0
 12 13  1  0
 13 14  1  0
 14 15  2  0
 15 16  1  0
 16 17  1  0
 10 18  2  0
 18  6  1  0
 17 13  2  0
  1 19  1  0
  1 20  1  0
  1 21  1  0
  4 22  1  0
  4 23  1  0
  7 24  1  0
  8 25  1  0
  9 26  1  0
 11 27  1  0
 12 28  1  0
 12 29  1  0
 14 30  1  0
 15 31  1  0
 16 32  1  0
 18 33  1  0
M  END
>  <CHROM.1>  (1) 
133.19993033,136.89160577,-74.20480795,-15.38384446,-2.85328690,-0.46530231
-1.15456337

>  <Name>  (1) 
CN(C(N)=O)c1cccc(NCc2cc[nH]n2)c1

>  <RI>  (1) 
3.75551e+07

>  <Rbt.Current_Directory>  (1) 
/data/out

>  <Rbt.Executable>  (1) 
rbdock ($Id: //depot/dev/client3/rdock/2013.1/src/exe/rbdock.cxx#4 $)

>  <Rbt.Library>  (1) 
libRbt.so (2013.1, Build901 2013/11/27)

>  <Rbt.Parameter_File>  (1) 
/python_libraries/phenodiscovery/docking/templates/RDOCK_TETHER.conf

>  <Rbt.Receptor>  (1) 
/data/out/rdock-opt/grid/rdock-grid.prm

>  <SCORE>  (1) 
-17.5021

>  <SCORE.INTER>  (1) 
-16.5804

>  <SCORE.INTER.CONST>  (1) 
1

>  <SCORE.INTER.POLAR>  (1) 
-0.845078

>  <SCORE.INTER.REPUL>  (1) 
0.00260442

>  <SCORE.INTER.ROT>  (1) 
4

>  <SCORE.INTER.VDW>  (1) 
-23.1202

>  <SCORE.INTER.norm>  (1) 
-0.921136

>  <SCORE.INTRA>  (1) 
-0.921619

>  <SCORE.INTRA.DIHEDRAL>  (1) 
-5.80941

>  <SCORE.INTRA.DIHEDRAL.0>  (1) 
21.261

>  <SCORE.INTRA.POLAR>  (1) 
0

>  <SCORE.INTRA.POLAR.0>  (1) 
0

>  <SCORE.INTRA.REPUL>  (1) 
0

>  <SCORE.INTRA.REPUL.0>  (1) 
0

>  <SCORE.INTRA.VDW>  (1) 
1.98308

>  <SCORE.INTRA.VDW.0>  (1) 
-3.17786

>  <SCORE.INTRA.norm>  (1) 
-0.051201

>  <SCORE.RESTR>  (1) 
0

>  <SCORE.RESTR.CAVITY>  (1) 
0

>  <SCORE.RESTR.norm>  (1) 
0

>  <SCORE.SYSTEM>  (1) 
0

>  <SCORE.SYSTEM.CONST>  (1) 
0

>  <SCORE.SYSTEM.DIHEDRAL>  (1) 
0

>  <SCORE.SYSTEM.norm>  (1) 
0

>  <SCORE.heavy>  (1) 
18

>  <SCORE.norm>  (1) 
-0.972337

>  <TETHERED ATOMS>  (1) 
11,10,14,16,13,17,15,7,12,8,6,18,9

>  <skeledock_score>  (1) 
94

$$$$
