CS(=O)(=O)Cc1cccc(NCc2cc[nH]n2)c1
     RDKit          3D

 33 34  0  0  0  0  0  0  0  0999 V2000
  -27.4904   15.1406   29.0871 C   0  0  0  0  0  0  0  0  0  0  0  0
  -26.0325   14.9565   28.0852 S   0  0  0  0  0  0  0  0  0  0  0  0
  -25.0988   16.1002   28.3676 O   0  0  0  0  0  0  0  0  0  0  0  0
  -26.4312   14.9715   26.6359 O   0  0  0  0  0  0  0  0  0  0  0  0
  -25.2421   13.3995   28.4920 C   0  0  0  0  0  0  0  0  0  0  0  0
  -24.0224   13.0241   27.6705 C   0  0  0  0  0  0  0  0  0  0  0  0
  -24.2460   12.4949   26.3894 C   0  0  0  0  0  0  0  0  0  0  0  0
  -23.1768   12.1250   25.5733 C   0  0  0  0  0  0  0  0  0  0  0  0
  -21.8653   12.2765   26.0222 C   0  0  0  0  0  0  0  0  0  0  0  0
  -21.6091   12.8070   27.2997 C   0  0  0  0  0  0  0  0  0  0  0  0
  -20.2674   12.9710   27.8010 N   0  0  0  0  0  0  0  0  0  0  0  0
  -19.0660   12.4714   27.1337 C   0  0  0  0  0  0  0  0  0  0  0  0
  -18.6306   13.4233   26.0647 C   0  0  0  0  0  0  0  0  0  0  0  0
  -18.4607   13.1222   24.7270 C   0  0  0  0  0  0  0  0  0  0  0  0
  -18.0460   14.3087   24.1628 C   0  0  0  0  0  0  0  0  0  0  0  0
  -17.9762   15.2441   25.1266 N   0  0  0  0  0  0  0  0  0  0  0  0
  -18.3280   14.7168   26.2877 N   0  0  0  0  0  0  0  0  0  0  0  0
  -22.6919   13.1754   28.1159 C   0  0  0  0  0  0  0  0  0  0  0  0
  -27.9892   16.1016   28.8446 H   0  0  0  0  0  0  0  0  0  0  0  0
  -27.2072   15.1330   30.1598 H   0  0  0  0  0  0  0  0  0  0  0  0
  -28.1883   14.3021   28.8849 H   0  0  0  0  0  0  0  0  0  0  0  0
  -24.9486   13.4405   29.5625 H   0  0  0  0  0  0  0  0  0  0  0  0
  -26.0028   12.5976   28.3821 H   0  0  0  0  0  0  0  0  0  0  0  0
  -25.2566   12.3672   26.0203 H   0  0  0  0  0  0  0  0  0  0  0  0
  -23.3662   11.7158   24.5893 H   0  0  0  0  0  0  0  0  0  0  0  0
  -21.0626   11.9692   25.3688 H   0  0  0  0  0  0  0  0  0  0  0  0
  -20.1325   13.4637   28.7134 H   0  0  0  0  0  0  0  0  0  0  0  0
  -18.2438   12.3837   27.8759 H   0  0  0  0  0  0  0  0  0  0  0  0
  -19.2496   11.4562   26.7216 H   0  0  0  0  0  0  0  0  0  0  0  0
  -18.6156   12.1725   24.2321 H   0  0  0  0  0  0  0  0  0  0  0  0
  -17.8086   14.4783   23.1209 H   0  0  0  0  0  0  0  0  0  0  0  0
  -17.6892   16.2392   24.9966 H   0  0  0  0  0  0  0  0  0  0  0  0
  -22.4736   13.5776   29.0926 H   0  0  0  0  0  0  0  0  0  0  0  0
  1  2  1  0
  2  3  2  0
  2  4  2  0
  2  5  1  0
  5  6  1  0
  6  7  2  0
  7  8  1  0
  8  9  2  0
  9 10  1  0
 10 11  1  0
 11 12  1  0
 12 13  1  0
 13 14  1  0
 14 15  2  0
 15 16  1  0
 16 17  1  0
 10 18  2  0
 18  6  1  0
 17 13  2  0
  1 19  1  0
  1 20  1  0
  1 21  1  0
  5 22  1  0
  5 23  1  0
  7 24  1  0
  8 25  1  0
  9 26  1  0
 11 27  1  0
 12 28  1  0
 12 29  1  0
 14 30  1  0
 15 31  1  0
 16 32  1  0
 18 33  1  0
M  END
>  <CHROM.1>  (1) 
176.20549569,-78.76787694,-7.68793813,82.37677884,-122.98305195,-2.83682429
-0.29278436,-1.55142210

>  <Name>  (1) 
CS(=O)(=O)Cc1cccc(NCc2cc[nH]n2)c1

>  <RI>  (1) 
9.83338e+06

>  <Rbt.Current_Directory>  (1) 
/data/out

>  <Rbt.Executable>  (1) 
rbdock ($Id: //depot/dev/client3/rdock/2013.1/src/exe/rbdock.cxx#4 $)

>  <Rbt.Library>  (1) 
libRbt.so (2013.1, Build901 2013/11/27)

>  <Rbt.Parameter_File>  (1) 
/python_libraries/phenodiscovery/docking/templates/RDOCK_TETHER.conf

>  <Rbt.Receptor>  (1) 
/data/out/rdock-opt/grid/rdock-grid.prm

>  <SCORE>  (1) 
-15.9699

>  <SCORE.INTER>  (1) 
-15.9294

>  <SCORE.INTER.CONST>  (1) 
1

>  <SCORE.INTER.POLAR>  (1) 
-1.11474

>  <SCORE.INTER.REPUL>  (1) 
0

>  <SCORE.INTER.ROT>  (1) 
5

>  <SCORE.INTER.VDW>  (1) 
-22.5393

>  <SCORE.INTER.norm>  (1) 
-0.884966

>  <SCORE.INTRA>  (1) 
-0.0404817

>  <SCORE.INTRA.DIHEDRAL>  (1) 
0.105715

>  <SCORE.INTRA.DIHEDRAL.0>  (1) 
3.44883

>  <SCORE.INTRA.POLAR>  (1) 
0

>  <SCORE.INTRA.POLAR.0>  (1) 
0

>  <SCORE.INTRA.REPUL>  (1) 
0

>  <SCORE.INTRA.REPUL.0>  (1) 
0

>  <SCORE.INTRA.VDW>  (1) 
-0.0933393

>  <SCORE.INTRA.VDW.0>  (1) 
-2.29264

>  <SCORE.INTRA.norm>  (1) 
-0.00224898

>  <SCORE.RESTR>  (1) 
0

>  <SCORE.RESTR.CAVITY>  (1) 
0

>  <SCORE.RESTR.norm>  (1) 
0

>  <SCORE.SYSTEM>  (1) 
0

>  <SCORE.SYSTEM.CONST>  (1) 
0

>  <SCORE.SYSTEM.DIHEDRAL>  (1) 
0

>  <SCORE.SYSTEM.norm>  (1) 
0

>  <SCORE.heavy>  (1) 
18

>  <SCORE.norm>  (1) 
-0.887215

>  <TETHERED ATOMS>  (1) 
11,10,14,16,13,17,15,12,7,8,6,18,9

>  <skeledock_score>  (1) 
94

$$$$
