CCCNC(=O)C[S+]([O-])Cc1nc2ccccc2[nH]1
     RDKit          3D

 36 37  0  0  0  0  0  0  0  0999 V2000
  -15.9247   19.8028   25.5926 C   0  0  0  0  0  0  0  0  0  0  0  0
  -14.7412   19.0646   26.2110 C   0  0  0  0  0  0  0  0  0  0  0  0
  -14.5043   17.7183   25.5195 C   0  0  0  0  0  0  0  0  0  0  0  0
  -15.6857   16.8629   25.6264 N   0  0  0  0  0  0  0  0  0  0  0  0
  -15.9416   16.0854   26.8030 C   0  0  0  0  0  0  0  0  0  0  0  0
  -15.1510   16.1364   27.7841 O   0  0  0  0  0  0  0  0  0  0  0  0
  -17.1724   15.2412   26.8912 C   0  0  0  0  0  0  0  0  0  0  0  0
  -17.4280   14.3879   25.3517 S   0  0  0  0  0  0  0  0  0  0  0  0
  -18.5675   15.1899   24.4150 O   0  0  0  0  0  0  0  0  0  0  0  0
  -17.8521   12.6751   25.6322 C   0  0  0  0  0  0  0  0  0  0  0  0
  -19.2763   12.5164   26.0626 C   0  0  0  0  0  0  0  0  0  0  0  0
  -20.2507   12.0627   25.2290 N   0  0  0  0  0  0  0  0  0  0  0  0
  -21.3508   12.1171   26.0005 C   0  0  0  0  0  0  0  0  0  0  0  0
  -22.6529   11.7599   25.6563 C   0  0  0  0  0  0  0  0  0  0  0  0
  -23.6499   11.8976   26.6409 C   0  0  0  0  0  0  0  0  0  0  0  0
  -23.3231   12.3845   27.9279 C   0  0  0  0  0  0  0  0  0  0  0  0
  -21.9970   12.7402   28.2402 C   0  0  0  0  0  0  0  0  0  0  0  0
  -21.0386   12.5896   27.2406 C   0  0  0  0  0  0  0  0  0  0  0  0
  -19.7273   12.8541   27.2969 N   0  0  0  0  0  0  0  0  0  0  0  0
  -16.8522   19.2003   25.6963 H   0  0  0  0  0  0  0  0  0  0  0  0
  -15.7352   20.0029   24.5164 H   0  0  0  0  0  0  0  0  0  0  0  0
  -16.0711   20.7724   26.1136 H   0  0  0  0  0  0  0  0  0  0  0  0
  -14.9436   18.8968   27.2912 H   0  0  0  0  0  0  0  0  0  0  0  0
  -13.8311   19.6961   26.1159 H   0  0  0  0  0  0  0  0  0  0  0  0
  -13.6392   17.2055   25.9941 H   0  0  0  0  0  0  0  0  0  0  0  0
  -14.2743   17.8891   24.4450 H   0  0  0  0  0  0  0  0  0  0  0  0
  -16.3690   16.8133   24.8361 H   0  0  0  0  0  0  0  0  0  0  0  0
  -17.0605   14.4979   27.7083 H   0  0  0  0  0  0  0  0  0  0  0  0
  -18.0591   15.8738   27.1092 H   0  0  0  0  0  0  0  0  0  0  0  0
  -17.1774   12.2591   26.4100 H   0  0  0  0  0  0  0  0  0  0  0  0
  -17.6900   12.1060   24.6935 H   0  0  0  0  0  0  0  0  0  0  0  0
  -22.8899   11.3869   24.6683 H   0  0  0  0  0  0  0  0  0  0  0  0
  -24.6727   11.6284   26.4113 H   0  0  0  0  0  0  0  0  0  0  0  0
  -24.0972   12.4859   28.6773 H   0  0  0  0  0  0  0  0  0  0  0  0
  -21.7331   13.1150   29.2205 H   0  0  0  0  0  0  0  0  0  0  0  0
  -19.1809   13.2342   28.1018 H   0  0  0  0  0  0  0  0  0  0  0  0
  1  2  1  0
  2  3  1  0
  3  4  1  0
  4  5  1  0
  5  6  2  0
  5  7  1  0
  7  8  1  0
  8  9  1  0
  8 10  1  0
 10 11  1  0
 11 12  2  0
 12 13  1  0
 13 14  2  0
 14 15  1  0
 15 16  2  0
 16 17  1  0
 17 18  2  0
 18 19  1  0
 19 11  1  0
 18 13  1  0
  1 20  1  0
  1 21  1  0
  1 22  1  0
  2 23  1  0
  2 24  1  0
  3 25  1  0
  3 26  1  0
  4 27  1  0
  7 28  1  0
  7 29  1  0
 10 30  1  0
 10 31  1  0
 14 32  1  0
 15 33  1  0
 16 34  1  0
 17 35  1  0
 19 36  1  0
M  END
>  <CHROM.1>  (1) 
-59.43067809,-82.27850498,43.11537445,-98.96283495,77.00240114,104.23666342
0.15449615,-0.48568973,-1.82037876

>  <Name>  (1) 
CCCNC(=O)C[S+]([O-])Cc1nc2ccccc2[nH]1

>  <RI>  (1) 
0

>  <Rbt.Current_Directory>  (1) 
/data/out

>  <Rbt.Executable>  (1) 
rbdock ($Id: //depot/dev/client3/rdock/2013.1/src/exe/rbdock.cxx#4 $)

>  <Rbt.Library>  (1) 
libRbt.so (2013.1, Build901 2013/11/27)

>  <Rbt.Parameter_File>  (1) 
/python_libraries/phenodiscovery/docking/templates/RDOCK_TETHER.conf

>  <Rbt.Receptor>  (1) 
/data/out/rdock-opt/grid/rdock-grid.prm

>  <SCORE>  (1) 
-16.3513

>  <SCORE.INTER>  (1) 
-15.6842

>  <SCORE.INTER.CONST>  (1) 
1

>  <SCORE.INTER.POLAR>  (1) 
-1.84883

>  <SCORE.INTER.REPUL>  (1) 
0

>  <SCORE.INTER.ROT>  (1) 
6

>  <SCORE.INTER.VDW>  (1) 
-20.7982

>  <SCORE.INTER.norm>  (1) 
-0.825486

>  <SCORE.INTRA>  (1) 
-0.667034

>  <SCORE.INTRA.DIHEDRAL>  (1) 
-0.452392

>  <SCORE.INTRA.DIHEDRAL.0>  (1) 
8.67208

>  <SCORE.INTRA.POLAR>  (1) 
0

>  <SCORE.INTRA.POLAR.0>  (1) 
0

>  <SCORE.INTRA.REPUL>  (1) 
0

>  <SCORE.INTRA.REPUL.0>  (1) 
0

>  <SCORE.INTRA.VDW>  (1) 
-0.440837

>  <SCORE.INTRA.VDW.0>  (1) 
-2.82055

>  <SCORE.INTRA.norm>  (1) 
-0.035107

>  <SCORE.RESTR>  (1) 
0

>  <SCORE.RESTR.CAVITY>  (1) 
0

>  <SCORE.RESTR.norm>  (1) 
0

>  <SCORE.SYSTEM>  (1) 
0

>  <SCORE.SYSTEM.CONST>  (1) 
0

>  <SCORE.SYSTEM.DIHEDRAL>  (1) 
0

>  <SCORE.SYSTEM.norm>  (1) 
0

>  <SCORE.heavy>  (1) 
19

>  <SCORE.norm>  (1) 
-0.860593

>  <TETHERED ATOMS>  (1) 
8,9,7,11,10,15,14,12,16,17,18,19,13

>  <skeledock_score>  (1) 
94

$$$$
