Cc1nc2ccccc2n1CCC(=O)NC(C)C(N)=O
     RDKit          3D

 38 39  0  0  0  0  0  0  0  0999 V2000
  -18.1595   12.9318   23.3929 C   0  0  0  0  0  0  0  0  0  0  0  0
  -19.1196   12.6551   24.5090 C   0  0  0  0  0  0  0  0  0  0  0  0
  -20.2001   11.8496   24.3437 N   0  0  0  0  0  0  0  0  0  0  0  0
  -20.8139   11.9144   25.5374 C   0  0  0  0  0  0  0  0  0  0  0  0
  -22.0292   11.3346   25.8921 C   0  0  0  0  0  0  0  0  0  0  0  0
  -22.5221   11.5852   27.1854 C   0  0  0  0  0  0  0  0  0  0  0  0
  -21.7936   12.3963   28.0835 C   0  0  0  0  0  0  0  0  0  0  0  0
  -20.5769   12.9828   27.6886 C   0  0  0  0  0  0  0  0  0  0  0  0
  -20.1205   12.7224   26.3923 C   0  0  0  0  0  0  0  0  0  0  0  0
  -19.0468   13.2184   25.7486 N   0  0  0  0  0  0  0  0  0  0  0  0
  -18.2161   14.3580   26.1538 C   0  0  0  0  0  0  0  0  0  0  0  0
  -18.9774   15.6710   26.0480 C   0  0  0  0  0  0  0  0  0  0  0  0
  -18.1279   16.8199   26.5052 C   0  0  0  0  0  0  0  0  0  0  0  0
  -18.4068   17.4120   27.5845 O   0  0  0  0  0  0  0  0  0  0  0  0
  -17.0240   17.2609   25.7040 N   0  0  0  0  0  0  0  0  0  0  0  0
  -16.1544   18.3658   26.1200 C   0  0  0  0  0  0  0  0  0  0  0  0
  -16.1742   19.4890   25.0791 C   0  0  0  0  0  0  0  0  0  0  0  0
  -14.7478   17.8660   26.3179 C   0  0  0  0  0  0  0  0  0  0  0  0
  -13.7687   18.6873   26.9548 N   0  0  0  0  0  0  0  0  0  0  0  0
  -14.4300   16.7111   25.9250 O   0  0  0  0  0  0  0  0  0  0  0  0
  -18.5007   12.4274   22.4644 H   0  0  0  0  0  0  0  0  0  0  0  0
  -18.1016   14.0223   23.1982 H   0  0  0  0  0  0  0  0  0  0  0  0
  -17.1551   12.5404   23.6483 H   0  0  0  0  0  0  0  0  0  0  0  0
  -22.5806   10.7177   25.1944 H   0  0  0  0  0  0  0  0  0  0  0  0
  -23.4628   11.1493   27.4959 H   0  0  0  0  0  0  0  0  0  0  0  0
  -22.1793   12.5775   29.0784 H   0  0  0  0  0  0  0  0  0  0  0  0
  -20.0263   13.6131   28.3732 H   0  0  0  0  0  0  0  0  0  0  0  0
  -17.8718   14.1995   27.1988 H   0  0  0  0  0  0  0  0  0  0  0  0
  -17.3004   14.4182   25.5287 H   0  0  0  0  0  0  0  0  0  0  0  0
  -19.2965   15.8170   24.9936 H   0  0  0  0  0  0  0  0  0  0  0  0
  -19.8905   15.6446   26.6744 H   0  0  0  0  0  0  0  0  0  0  0  0
  -16.8516   16.7895   24.7866 H   0  0  0  0  0  0  0  0  0  0  0  0
  -16.5428   18.7887   27.0728 H   0  0  0  0  0  0  0  0  0  0  0  0
  -15.5271   20.3293   25.4108 H   0  0  0  0  0  0  0  0  0  0  0  0
  -17.2099   19.8717   24.9577 H   0  0  0  0  0  0  0  0  0  0  0  0
  -15.8122   19.1210   24.0948 H   0  0  0  0  0  0  0  0  0  0  0  0
  -12.7959   18.3341   27.0928 H   0  0  0  0  0  0  0  0  0  0  0  0
  -14.0091   19.6458   27.2914 H   0  0  0  0  0  0  0  0  0  0  0  0
  1  2  1  0
  2  3  2  0
  3  4  1  0
  4  5  2  0
  5  6  1  0
  6  7  2  0
  7  8  1  0
  8  9  2  0
  9 10  1  0
 10 11  1  0
 11 12  1  0
 12 13  1  0
 13 14  2  0
 13 15  1  0
 15 16  1  0
 16 17  1  0
 16 18  1  0
 18 19  1  0
 18 20  2  0
 10  2  1  0
  9  4  1  0
  1 21  1  0
  1 22  1  0
  1 23  1  0
  5 24  1  0
  6 25  1  0
  7 26  1  0
  8 27  1  0
 11 28  1  0
 11 29  1  0
 12 30  1  0
 12 31  1  0
 15 32  1  0
 16 33  1  0
 17 34  1  0
 17 35  1  0
 17 36  1  0
 19 37  1  0
 19 38  1  0
M  END
>  <CHROM.1>  (1) 
93.48596790,178.27194267,-110.14260849,-121.01259063,-168.47638886,-2.47458638
0.76618134,0.76368102

>  <Name>  (1) 
Cc1nc2ccccc2n1CCC(=O)NC(C)C(N)=O

>  <RI>  (1) 
2.52827e+07

>  <Rbt.Current_Directory>  (1) 
/data/out

>  <Rbt.Executable>  (1) 
rbdock ($Id: //depot/dev/client3/rdock/2013.1/src/exe/rbdock.cxx#4 $)

>  <Rbt.Library>  (1) 
libRbt.so (2013.1, Build901 2013/11/27)

>  <Rbt.Parameter_File>  (1) 
/python_libraries/phenodiscovery/docking/templates/RDOCK_TETHER.conf

>  <Rbt.Receptor>  (1) 
/data/out/rdock-opt/grid/rdock-grid.prm

>  <SCORE>  (1) 
-17.6342

>  <SCORE.INTER>  (1) 
-15.9659

>  <SCORE.INTER.CONST>  (1) 
1

>  <SCORE.INTER.POLAR>  (1) 
-1.42864

>  <SCORE.INTER.REPUL>  (1) 
0.0311986

>  <SCORE.INTER.ROT>  (1) 
5

>  <SCORE.INTER.VDW>  (1) 
-21.6645

>  <SCORE.INTER.norm>  (1) 
-0.798295

>  <SCORE.INTRA>  (1) 
-1.66831

>  <SCORE.INTRA.DIHEDRAL>  (1) 
-1.61182

>  <SCORE.INTRA.DIHEDRAL.0>  (1) 
8.20399

>  <SCORE.INTRA.POLAR>  (1) 
0

>  <SCORE.INTRA.POLAR.0>  (1) 
0

>  <SCORE.INTRA.REPUL>  (1) 
0

>  <SCORE.INTRA.REPUL.0>  (1) 
0

>  <SCORE.INTRA.VDW>  (1) 
-0.862403

>  <SCORE.INTRA.VDW.0>  (1) 
-1.3129

>  <SCORE.INTRA.norm>  (1) 
-0.0834157

>  <SCORE.RESTR>  (1) 
0

>  <SCORE.RESTR.CAVITY>  (1) 
0

>  <SCORE.RESTR.norm>  (1) 
0

>  <SCORE.SYSTEM>  (1) 
0

>  <SCORE.SYSTEM.CONST>  (1) 
0

>  <SCORE.SYSTEM.DIHEDRAL>  (1) 
0

>  <SCORE.SYSTEM.norm>  (1) 
0

>  <SCORE.heavy>  (1) 
20

>  <SCORE.norm>  (1) 
-0.881711

>  <TETHERED ATOMS>  (1) 
10,13,11,14,15,12,9,6,5,2,4,7,1,3,8

>  <skeledock_score>  (1) 
115

$$$$
