CCS(=O)(=O)c1cccc(NCc2cc[nH]n2)c1
     RDKit          3D

 33 34  0  0  0  0  0  0  0  0999 V2000
  -27.1888   14.2535   29.3816 C   0  0  0  0  0  0  0  0  0  0  0  0
  -26.0179   13.4220   28.8712 C   0  0  0  0  0  0  0  0  0  0  0  0
  -25.1079   14.2966   27.6079 S   0  0  0  0  0  0  0  0  0  0  0  0
  -26.0155   14.6018   26.4487 O   0  0  0  0  0  0  0  0  0  0  0  0
  -24.5992   15.5941   28.1704 O   0  0  0  0  0  0  0  0  0  0  0  0
  -23.7464   13.3217   27.0626 C   0  0  0  0  0  0  0  0  0  0  0  0
  -23.8781   12.5018   25.9331 C   0  0  0  0  0  0  0  0  0  0  0  0
  -22.7907   11.7516   25.4802 C   0  0  0  0  0  0  0  0  0  0  0  0
  -21.5727   11.8072   26.1582 C   0  0  0  0  0  0  0  0  0  0  0  0
  -21.4254   12.6291   27.2815 C   0  0  0  0  0  0  0  0  0  0  0  0
  -20.1845   12.6146   27.9963 N   0  0  0  0  0  0  0  0  0  0  0  0
  -18.8917   12.4986   27.3338 C   0  0  0  0  0  0  0  0  0  0  0  0
  -18.7631   13.5142   26.2404 C   0  0  0  0  0  0  0  0  0  0  0  0
  -18.4517   13.2624   24.9157 C   0  0  0  0  0  0  0  0  0  0  0  0
  -18.4091   14.5117   24.3345 C   0  0  0  0  0  0  0  0  0  0  0  0
  -18.6724   15.4345   25.2767 N   0  0  0  0  0  0  0  0  0  0  0  0
  -18.8866   14.8396   26.4383 N   0  0  0  0  0  0  0  0  0  0  0  0
  -22.5132   13.3943   27.7294 C   0  0  0  0  0  0  0  0  0  0  0  0
  -27.9121   14.4476   28.5618 H   0  0  0  0  0  0  0  0  0  0  0  0
  -27.7118   13.7001   30.1894 H   0  0  0  0  0  0  0  0  0  0  0  0
  -26.8269   15.2207   29.7900 H   0  0  0  0  0  0  0  0  0  0  0  0
  -25.3333   13.1908   29.7145 H   0  0  0  0  0  0  0  0  0  0  0  0
  -26.3977   12.4674   28.4495 H   0  0  0  0  0  0  0  0  0  0  0  0
  -24.8186   12.4512   25.3993 H   0  0  0  0  0  0  0  0  0  0  0  0
  -22.8958   11.1193   24.6080 H   0  0  0  0  0  0  0  0  0  0  0  0
  -20.7405   11.2086   25.8091 H   0  0  0  0  0  0  0  0  0  0  0  0
  -20.2141   12.4190   29.0228 H   0  0  0  0  0  0  0  0  0  0  0  0
  -18.0711   12.6167   28.0729 H   0  0  0  0  0  0  0  0  0  0  0  0
  -18.8029   11.4866   26.8841 H   0  0  0  0  0  0  0  0  0  0  0  0
  -18.2769   12.3050   24.4428 H   0  0  0  0  0  0  0  0  0  0  0  0
  -18.1942   14.7330   23.2975 H   0  0  0  0  0  0  0  0  0  0  0  0
  -18.7052   16.4676   25.1313 H   0  0  0  0  0  0  0  0  0  0  0  0
  -22.4041   14.0249   28.6022 H   0  0  0  0  0  0  0  0  0  0  0  0
  1  2  1  0
  2  3  1  0
  3  4  2  0
  3  5  2  0
  3  6  1  0
  6  7  2  0
  7  8  1  0
  8  9  2  0
  9 10  1  0
 10 11  1  0
 11 12  1  0
 12 13  1  0
 13 14  1  0
 14 15  2  0
 15 16  1  0
 16 17  1  0
 10 18  2  0
 18  6  1  0
 17 13  2  0
  1 19  1  0
  1 20  1  0
  1 21  1  0
  2 22  1  0
  2 23  1  0
  7 24  1  0
  8 25  1  0
  9 26  1  0
 11 27  1  0
 12 28  1  0
 12 29  1  0
 14 30  1  0
 15 31  1  0
 16 32  1  0
 18 33  1  0
M  END
>  <CHROM.1>  (1) 
-60.06369403,94.54766406,37.59046914,51.50699366,-125.69374091,-2.78687275
-0.25409205,-1.16324660

>  <Name>  (1) 
CCS(=O)(=O)c1cccc(NCc2cc[nH]n2)c1

>  <RI>  (1) 
1.26514e+07

>  <Rbt.Current_Directory>  (1) 
/data/out

>  <Rbt.Executable>  (1) 
rbdock ($Id: //depot/dev/client3/rdock/2013.1/src/exe/rbdock.cxx#4 $)

>  <Rbt.Library>  (1) 
libRbt.so (2013.1, Build901 2013/11/27)

>  <Rbt.Parameter_File>  (1) 
/python_libraries/phenodiscovery/docking/templates/RDOCK_TETHER.conf

>  <Rbt.Receptor>  (1) 
/data/out/rdock-opt/grid/rdock-grid.prm

>  <SCORE>  (1) 
-15.6309

>  <SCORE.INTER>  (1) 
-16.0035

>  <SCORE.INTER.CONST>  (1) 
1

>  <SCORE.INTER.POLAR>  (1) 
-0.83376

>  <SCORE.INTER.REPUL>  (1) 
0.0182991

>  <SCORE.INTER.ROT>  (1) 
5

>  <SCORE.INTER.VDW>  (1) 
-23.6602

>  <SCORE.INTER.norm>  (1) 
-0.889082

>  <SCORE.INTRA>  (1) 
0.372546

>  <SCORE.INTRA.DIHEDRAL>  (1) 
-2.72767

>  <SCORE.INTRA.DIHEDRAL.0>  (1) 
13.6975

>  <SCORE.INTRA.POLAR>  (1) 
0

>  <SCORE.INTRA.POLAR.0>  (1) 
0

>  <SCORE.INTRA.REPUL>  (1) 
0

>  <SCORE.INTRA.REPUL.0>  (1) 
0

>  <SCORE.INTRA.VDW>  (1) 
1.73638

>  <SCORE.INTRA.VDW.0>  (1) 
-4.52869

>  <SCORE.INTRA.norm>  (1) 
0.020697

>  <SCORE.RESTR>  (1) 
0

>  <SCORE.RESTR.CAVITY>  (1) 
0

>  <SCORE.RESTR.norm>  (1) 
0

>  <SCORE.SYSTEM>  (1) 
0

>  <SCORE.SYSTEM.CONST>  (1) 
0

>  <SCORE.SYSTEM.DIHEDRAL>  (1) 
0

>  <SCORE.SYSTEM.norm>  (1) 
0

>  <SCORE.heavy>  (1) 
18

>  <SCORE.norm>  (1) 
-0.868385

>  <TETHERED ATOMS>  (1) 
11,10,14,16,13,17,15,7,12,8,6,18,9

>  <skeledock_score>  (1) 
94

$$$$
