Cc1cc(F)cc(S(=O)(=O)NC(C)CCO)c1
     RDKit          3D

 33 33  0  0  0  0  0  0  0  0999 V2000
  -19.1262   12.3377   26.5097 C   0  0  0  0  0  0  0  0  0  0  0  0
  -20.6241   12.3786   26.5717 C   0  0  0  0  0  0  0  0  0  0  0  0
  -21.3734   12.2216   25.3975 C   0  0  0  0  0  0  0  0  0  0  0  0
  -22.7690   12.2740   25.4416 C   0  0  0  0  0  0  0  0  0  0  0  0
  -23.4882   12.1004   24.3063 F   0  0  0  0  0  0  0  0  0  0  0  0
  -23.4244   12.5103   26.6527 C   0  0  0  0  0  0  0  0  0  0  0  0
  -22.6861   12.6664   27.8337 C   0  0  0  0  0  0  0  0  0  0  0  0
  -23.5063   12.9919   29.3592 S   0  0  0  0  0  0  0  0  0  0  0  0
  -24.9597   12.6300   29.2308 O   0  0  0  0  0  0  0  0  0  0  0  0
  -23.4114   14.4599   29.6655 O   0  0  0  0  0  0  0  0  0  0  0  0
  -22.7872   12.1101   30.6782 N   0  0  0  0  0  0  0  0  0  0  0  0
  -23.7480   11.8199   31.7579 C   0  0  0  0  0  0  0  0  0  0  0  0
  -23.8465   13.0575   32.6550 C   0  0  0  0  0  0  0  0  0  0  0  0
  -23.3161   10.5750   32.5763 C   0  0  0  0  0  0  0  0  0  0  0  0
  -23.2418    9.3036   31.7213 C   0  0  0  0  0  0  0  0  0  0  0  0
  -22.4885    9.5433   30.5640 O   0  0  0  0  0  0  0  0  0  0  0  0
  -21.2872   12.5758   27.7926 C   0  0  0  0  0  0  0  0  0  0  0  0
  -18.7958   11.3565   26.1086 H   0  0  0  0  0  0  0  0  0  0  0  0
  -18.6718   12.4791   27.5135 H   0  0  0  0  0  0  0  0  0  0  0  0
  -18.7592   13.1456   25.8423 H   0  0  0  0  0  0  0  0  0  0  0  0
  -20.8753   12.0555   24.4501 H   0  0  0  0  0  0  0  0  0  0  0  0
  -24.5048   12.5720   26.6669 H   0  0  0  0  0  0  0  0  0  0  0  0
  -22.3685   11.2300   30.2971 H   0  0  0  0  0  0  0  0  0  0  0  0
  -24.7638   11.6551   31.3375 H   0  0  0  0  0  0  0  0  0  0  0  0
  -22.8704   13.2656   33.1434 H   0  0  0  0  0  0  0  0  0  0  0  0
  -24.6224   12.9198   33.4359 H   0  0  0  0  0  0  0  0  0  0  0  0
  -24.1309   13.9411   32.0445 H   0  0  0  0  0  0  0  0  0  0  0  0
  -24.0185   10.4123   33.4232 H   0  0  0  0  0  0  0  0  0  0  0  0
  -22.3142   10.7469   33.0210 H   0  0  0  0  0  0  0  0  0  0  0  0
  -24.2650    9.0013   31.4133 H   0  0  0  0  0  0  0  0  0  0  0  0
  -22.7945    8.4645   32.2989 H   0  0  0  0  0  0  0  0  0  0  0  0
  -22.5924    8.7424   29.9865 H   0  0  0  0  0  0  0  0  0  0  0  0
  -20.7144   12.6756   28.7051 H   0  0  0  0  0  0  0  0  0  0  0  0
  1  2  1  0
  2  3  2  0
  3  4  1  0
  4  5  1  0
  4  6  2  0
  6  7  1  0
  7  8  1  0
  8  9  2  0
  8 10  2  0
  8 11  1  0
 11 12  1  0
 12 13  1  0
 12 14  1  0
 14 15  1  0
 15 16  1  0
  7 17  2  0
 17  2  1  0
  1 18  1  0
  1 19  1  0
  1 20  1  0
  3 21  1  0
  6 22  1  0
 11 23  1  0
 12 24  1  0
 13 25  1  0
 13 26  1  0
 13 27  1  0
 14 28  1  0
 14 29  1  0
 15 30  1  0
 15 31  1  0
 16 32  1  0
 17 33  1  0
M  END
>  <CHROM.1>  (1) 
17.78076186,-152.21057512,-82.65123707,-61.05790132,50.10252771,-171.29220200
1.97866578,-0.04956171,1.40263492

>  <Name>  (1) 
Cc1cc(F)cc(S(=O)(=O)NC(C)CCO)c1

>  <RI>  (1) 
3.16694e+07

>  <Rbt.Current_Directory>  (1) 
/data/out

>  <Rbt.Executable>  (1) 
rbdock ($Id: //depot/dev/client3/rdock/2013.1/src/exe/rbdock.cxx#4 $)

>  <Rbt.Library>  (1) 
libRbt.so (2013.1, Build901 2013/11/27)

>  <Rbt.Parameter_File>  (1) 
/python_libraries/phenodiscovery/docking/templates/RDOCK_TETHER.conf

>  <Rbt.Receptor>  (1) 
/data/out/rdock-opt/grid/rdock-grid.prm

>  <SCORE>  (1) 
-16.2824

>  <SCORE.INTER>  (1) 
-14.5077

>  <SCORE.INTER.CONST>  (1) 
1

>  <SCORE.INTER.POLAR>  (1) 
-1.513

>  <SCORE.INTER.REPUL>  (1) 
0

>  <SCORE.INTER.ROT>  (1) 
5

>  <SCORE.INTER.VDW>  (1) 
-19.7635

>  <SCORE.INTER.norm>  (1) 
-0.853391

>  <SCORE.INTRA>  (1) 
-1.77477

>  <SCORE.INTRA.DIHEDRAL>  (1) 
-1.13532

>  <SCORE.INTRA.DIHEDRAL.0>  (1) 
5.04352

>  <SCORE.INTRA.POLAR>  (1) 
-0.761108

>  <SCORE.INTRA.POLAR.0>  (1) 
0

>  <SCORE.INTRA.REPUL>  (1) 
0

>  <SCORE.INTRA.REPUL.0>  (1) 
0

>  <SCORE.INTRA.VDW>  (1) 
1.38066

>  <SCORE.INTRA.VDW.0>  (1) 
-2.46587

>  <SCORE.INTRA.norm>  (1) 
-0.104398

>  <SCORE.RESTR>  (1) 
0

>  <SCORE.RESTR.CAVITY>  (1) 
0

>  <SCORE.RESTR.norm>  (1) 
0

>  <SCORE.SYSTEM>  (1) 
0

>  <SCORE.SYSTEM.CONST>  (1) 
0

>  <SCORE.SYSTEM.DIHEDRAL>  (1) 
0

>  <SCORE.SYSTEM.norm>  (1) 
0

>  <SCORE.heavy>  (1) 
17

>  <SCORE.norm>  (1) 
-0.95779

>  <TETHERED ATOMS>  (1) 
8,9,10,11,7,3,2,5,1,17,6,4

>  <skeledock_score>  (1) 
91

$$$$
