Cc1cc(F)cc(S(=O)(=O)N[C@@H](C)C(=O)O)c1
     RDKit          3D

 29 29  0  0  0  0  0  0  0  0999 V2000
  -18.9731   12.5740   27.1916 C   0  0  0  0  0  0  0  0  0  0  0  0
  -20.4501   12.3941   27.0028 C   0  0  0  0  0  0  0  0  0  0  0  0
  -20.9551   11.7376   25.8696 C   0  0  0  0  0  0  0  0  0  0  0  0
  -22.3338   11.5730   25.7092 C   0  0  0  0  0  0  0  0  0  0  0  0
  -22.8157   10.9384   24.6130 F   0  0  0  0  0  0  0  0  0  0  0  0
  -23.2164   12.0617   26.6755 C   0  0  0  0  0  0  0  0  0  0  0  0
  -22.7217   12.7191   27.8095 C   0  0  0  0  0  0  0  0  0  0  0  0
  -23.8219   13.3766   29.0160 S   0  0  0  0  0  0  0  0  0  0  0  0
  -23.3457   12.9666   30.3713 O   0  0  0  0  0  0  0  0  0  0  0  0
  -25.1907   12.7957   28.8528 O   0  0  0  0  0  0  0  0  0  0  0  0
  -23.8916   15.1166   28.9446 N   0  0  0  0  0  0  0  0  0  0  0  0
  -25.2077   15.6466   29.3509 C   0  0  0  0  0  0  0  0  0  0  0  0
  -25.0998   17.1091   29.8027 C   0  0  0  0  0  0  0  0  0  0  0  0
  -26.1862   15.5671   28.2052 C   0  0  0  0  0  0  0  0  0  0  0  0
  -25.7840   15.5100   27.0111 O   0  0  0  0  0  0  0  0  0  0  0  0
  -27.5526   15.5636   28.4709 O   0  0  0  0  0  0  0  0  0  0  0  0
  -21.3399   12.8861   27.9688 C   0  0  0  0  0  0  0  0  0  0  0  0
  -18.7345   13.6567   27.2535 H   0  0  0  0  0  0  0  0  0  0  0  0
  -18.6542   12.0779   28.1324 H   0  0  0  0  0  0  0  0  0  0  0  0
  -18.3973   12.1345   26.3494 H   0  0  0  0  0  0  0  0  0  0  0  0
  -20.2837   11.3524   25.1122 H   0  0  0  0  0  0  0  0  0  0  0  0
  -24.2815   11.9323   26.5352 H   0  0  0  0  0  0  0  0  0  0  0  0
  -23.7419   15.3553   27.9364 H   0  0  0  0  0  0  0  0  0  0  0  0
  -25.6295   15.0366   30.1786 H   0  0  0  0  0  0  0  0  0  0  0  0
  -26.1094   17.5420   29.9702 H   0  0  0  0  0  0  0  0  0  0  0  0
  -24.5539   17.1849   30.7637 H   0  0  0  0  0  0  0  0  0  0  0  0
  -24.5723   17.7141   29.0343 H   0  0  0  0  0  0  0  0  0  0  0  0
  -27.8973   15.6170   29.4220 H   0  0  0  0  0  0  0  0  0  0  0  0
  -20.9571   13.4027   28.8410 H   0  0  0  0  0  0  0  0  0  0  0  0
  1  2  1  0
  2  3  2  0
  3  4  1  0
  4  5  1  0
  4  6  2  0
  6  7  1  0
  7  8  1  0
  8  9  2  0
  8 10  2  0
  8 11  1  0
 11 12  1  0
 12 13  1  0
 12 14  1  0
 14 15  2  0
 14 16  1  0
  7 17  2  0
 17  2  1  0
  1 18  1  0
  1 19  1  0
  1 20  1  0
  3 21  1  0
  6 22  1  0
 11 23  1  0
 12 24  1  0
 13 25  1  0
 13 26  1  0
 13 27  1  0
 16 28  1  0
 17 29  1  0
M  END
>  <CHROM.1>  (1) 
132.90772577,149.37963478,157.94083265,-22.59344704,0.21273421,2.17237577
0.04908701,1.04938194

>  <Name>  (1) 
Cc1cc(F)cc(S(=O)(=O)N[C@@H](C)C(=O)O)c1

>  <RI>  (1) 
1.98566e+07

>  <Rbt.Current_Directory>  (1) 
/data/out

>  <Rbt.Executable>  (1) 
rbdock ($Id: //depot/dev/client3/rdock/2013.1/src/exe/rbdock.cxx#4 $)

>  <Rbt.Library>  (1) 
libRbt.so (2013.1, Build901 2013/11/27)

>  <Rbt.Parameter_File>  (1) 
/python_libraries/phenodiscovery/docking/templates/RDOCK_TETHER.conf

>  <Rbt.Receptor>  (1) 
/data/out/rdock-opt/grid/rdock-grid.prm

>  <SCORE>  (1) 
-15.6219

>  <SCORE.INTER>  (1) 
-16.9679

>  <SCORE.INTER.CONST>  (1) 
1

>  <SCORE.INTER.POLAR>  (1) 
-2.27522

>  <SCORE.INTER.REPUL>  (1) 
0

>  <SCORE.INTER.ROT>  (1) 
4

>  <SCORE.INTER.VDW>  (1) 
-18.6321

>  <SCORE.INTER.norm>  (1) 
-0.99811

>  <SCORE.INTRA>  (1) 
1.34596

>  <SCORE.INTRA.DIHEDRAL>  (1) 
1.92306

>  <SCORE.INTRA.DIHEDRAL.0>  (1) 
2.54585

>  <SCORE.INTRA.POLAR>  (1) 
0

>  <SCORE.INTRA.POLAR.0>  (1) 
0

>  <SCORE.INTRA.REPUL>  (1) 
0

>  <SCORE.INTRA.REPUL.0>  (1) 
0

>  <SCORE.INTRA.VDW>  (1) 
0.384428

>  <SCORE.INTRA.VDW.0>  (1) 
-3.1488

>  <SCORE.INTRA.norm>  (1) 
0.0791739

>  <SCORE.RESTR>  (1) 
0

>  <SCORE.RESTR.CAVITY>  (1) 
0

>  <SCORE.RESTR.norm>  (1) 
0

>  <SCORE.SYSTEM>  (1) 
0

>  <SCORE.SYSTEM.CONST>  (1) 
0

>  <SCORE.SYSTEM.DIHEDRAL>  (1) 
0

>  <SCORE.SYSTEM.norm>  (1) 
0

>  <SCORE.heavy>  (1) 
17

>  <SCORE.norm>  (1) 
-0.918936

>  <TETHERED ATOMS>  (1) 
8,10,9,11,7,3,2,5,1,17,6,4

>  <skeledock_score>  (1) 
91

$$$$
