O=C(NCCO)c1ccc(NCc2cc[nH]n2)cc1
     RDKit          3D

 35 36  0  0  0  0  0  0  0  0999 V2000
  -25.9174   13.9931   25.9398 O   0  0  0  0  0  0  0  0  0  0  0  0
  -25.1534   13.8180   26.9287 C   0  0  0  0  0  0  0  0  0  0  0  0
  -25.5991   14.1902   28.2434 N   0  0  0  0  0  0  0  0  0  0  0  0
  -26.8185   14.9657   28.4660 C   0  0  0  0  0  0  0  0  0  0  0  0
  -26.5625   16.4581   28.2437 C   0  0  0  0  0  0  0  0  0  0  0  0
  -25.9304   16.6732   27.0107 O   0  0  0  0  0  0  0  0  0  0  0  0
  -23.8165   13.2127   26.7165 C   0  0  0  0  0  0  0  0  0  0  0  0
  -22.7695   13.4240   27.6338 C   0  0  0  0  0  0  0  0  0  0  0  0
  -21.5080   12.8585   27.4147 C   0  0  0  0  0  0  0  0  0  0  0  0
  -21.2817   12.0622   26.2836 C   0  0  0  0  0  0  0  0  0  0  0  0
  -20.0338   11.3879   26.0882 N   0  0  0  0  0  0  0  0  0  0  0  0
  -18.7478   12.0009   26.3943 C   0  0  0  0  0  0  0  0  0  0  0  0
  -18.8151   13.4877   26.2246 C   0  0  0  0  0  0  0  0  0  0  0  0
  -18.8352   14.1795   25.0261 C   0  0  0  0  0  0  0  0  0  0  0  0
  -18.8542   15.5059   25.4011 C   0  0  0  0  0  0  0  0  0  0  0  0
  -18.8360   15.5746   26.7439 N   0  0  0  0  0  0  0  0  0  0  0  0
  -18.8097   14.3545   27.2540 N   0  0  0  0  0  0  0  0  0  0  0  0
  -22.3164   11.8570   25.3661 C   0  0  0  0  0  0  0  0  0  0  0  0
  -23.5687   12.4375   25.5703 C   0  0  0  0  0  0  0  0  0  0  0  0
  -25.0942   13.8269   29.0823 H   0  0  0  0  0  0  0  0  0  0  0  0
  -27.6219   14.6130   27.7838 H   0  0  0  0  0  0  0  0  0  0  0  0
  -27.1699   14.8099   29.5093 H   0  0  0  0  0  0  0  0  0  0  0  0
  -27.5256   17.0102   28.2535 H   0  0  0  0  0  0  0  0  0  0  0  0
  -25.9375   16.8588   29.0736 H   0  0  0  0  0  0  0  0  0  0  0  0
  -25.7488   17.6474   26.9508 H   0  0  0  0  0  0  0  0  0  0  0  0
  -22.9105   14.0453   28.5080 H   0  0  0  0  0  0  0  0  0  0  0  0
  -20.7177   13.0188   28.1368 H   0  0  0  0  0  0  0  0  0  0  0  0
  -20.0252   10.5473   25.4665 H   0  0  0  0  0  0  0  0  0  0  0  0
  -17.9798   11.6029   25.6972 H   0  0  0  0  0  0  0  0  0  0  0  0
  -18.4374   11.7412   27.4287 H   0  0  0  0  0  0  0  0  0  0  0  0
  -18.8326   13.7743   24.0229 H   0  0  0  0  0  0  0  0  0  0  0  0
  -18.8732   16.3622   24.7401 H   0  0  0  0  0  0  0  0  0  0  0  0
  -18.8397   16.4490   27.3138 H   0  0  0  0  0  0  0  0  0  0  0  0
  -22.1516   11.2401   24.4913 H   0  0  0  0  0  0  0  0  0  0  0  0
  -24.3518   12.2602   24.8434 H   0  0  0  0  0  0  0  0  0  0  0  0
  1  2  2  0
  2  3  1  0
  3  4  1  0
  4  5  1  0
  5  6  1  0
  2  7  1  0
  7  8  2  0
  8  9  1  0
  9 10  2  0
 10 11  1  0
 11 12  1  0
 12 13  1  0
 13 14  1  0
 14 15  2  0
 15 16  1  0
 16 17  1  0
 10 18  1  0
 18 19  2  0
 19  7  1  0
 17 13  2  0
  3 20  1  0
  4 21  1  0
  4 22  1  0
  5 23  1  0
  5 24  1  0
  6 25  1  0
  8 26  1  0
  9 27  1  0
 11 28  1  0
 12 29  1  0
 12 30  1  0
 14 31  1  0
 15 32  1  0
 16 33  1  0
 18 34  1  0
 19 35  1  0
M  END
>  <CHROM.1>  (1) 
-81.06658219,50.69885659,-176.95020249,156.95967321,-40.38099640,-29.60382609
-74.95361382,-2.72140347,0.13681414,0.21091195

>  <Name>  (1) 
O=C(NCCO)c1ccc(NCc2cc[nH]n2)cc1

>  <RI>  (1) 
3.01127e+07

>  <Rbt.Current_Directory>  (1) 
/data/out

>  <Rbt.Executable>  (1) 
rbdock ($Id: //depot/dev/client3/rdock/2013.1/src/exe/rbdock.cxx#4 $)

>  <Rbt.Library>  (1) 
libRbt.so (2013.1, Build901 2013/11/27)

>  <Rbt.Parameter_File>  (1) 
/python_libraries/phenodiscovery/docking/templates/RDOCK_TETHER.conf

>  <Rbt.Receptor>  (1) 
/data/out/rdock-opt/grid/rdock-grid.prm

>  <SCORE>  (1) 
-19.1801

>  <SCORE.INTER>  (1) 
-16.662

>  <SCORE.INTER.CONST>  (1) 
1

>  <SCORE.INTER.POLAR>  (1) 
-1.70064

>  <SCORE.INTER.REPUL>  (1) 
0.0183334

>  <SCORE.INTER.ROT>  (1) 
6

>  <SCORE.INTER.VDW>  (1) 
-22.3715

>  <SCORE.INTER.norm>  (1) 
-0.87695

>  <SCORE.INTRA>  (1) 
-2.51809

>  <SCORE.INTRA.DIHEDRAL>  (1) 
-6.53022

>  <SCORE.INTRA.DIHEDRAL.0>  (1) 
17.1159

>  <SCORE.INTRA.POLAR>  (1) 
0

>  <SCORE.INTRA.POLAR.0>  (1) 
0

>  <SCORE.INTRA.REPUL>  (1) 
0

>  <SCORE.INTRA.REPUL.0>  (1) 
0

>  <SCORE.INTRA.VDW>  (1) 
0.747025

>  <SCORE.INTRA.VDW.0>  (1) 
-3.05273

>  <SCORE.INTRA.norm>  (1) 
-0.132531

>  <SCORE.RESTR>  (1) 
0

>  <SCORE.RESTR.CAVITY>  (1) 
0

>  <SCORE.RESTR.norm>  (1) 
0

>  <SCORE.SYSTEM>  (1) 
0

>  <SCORE.SYSTEM.CONST>  (1) 
0

>  <SCORE.SYSTEM.DIHEDRAL>  (1) 
0

>  <SCORE.SYSTEM.norm>  (1) 
0

>  <SCORE.heavy>  (1) 
19

>  <SCORE.norm>  (1) 
-1.00948

>  <TETHERED ATOMS>  (1) 
11,10,14,16,13,17,15,7,12,8,19,18,9

>  <skeledock_score>  (1) 
92

$$$$
