CNCC(C)C(=O)Nc1ccccn1
     RDKit          3D

 29 29  0  0  0  0  0  0  0  0999 V2000
  -18.4843   15.7693   25.8413 C   0  0  0  0  0  0  0  0  0  0  0  0
  -19.0569   14.5580   25.2526 N   0  0  0  0  0  0  0  0  0  0  0  0
  -18.2108   14.0704   24.1554 C   0  0  0  0  0  0  0  0  0  0  0  0
  -18.5614   12.6182   23.7685 C   0  0  0  0  0  0  0  0  0  0  0  0
  -17.6015   12.0512   22.7107 C   0  0  0  0  0  0  0  0  0  0  0  0
  -18.7016   11.7305   24.9815 C   0  0  0  0  0  0  0  0  0  0  0  0
  -18.0801   10.6343   25.0046 O   0  0  0  0  0  0  0  0  0  0  0  0
  -19.4489   12.1184   26.1385 N   0  0  0  0  0  0  0  0  0  0  0  0
  -20.8677   12.2967   26.0598 C   0  0  0  0  0  0  0  0  0  0  0  0
  -21.4973   13.2912   26.8211 C   0  0  0  0  0  0  0  0  0  0  0  0
  -22.8856   13.4272   26.7559 C   0  0  0  0  0  0  0  0  0  0  0  0
  -23.6280   12.5890   25.9223 C   0  0  0  0  0  0  0  0  0  0  0  0
  -22.9671   11.6175   25.1688 C   0  0  0  0  0  0  0  0  0  0  0  0
  -21.6173   11.4902   25.2593 N   0  0  0  0  0  0  0  0  0  0  0  0
  -18.4811   16.5947   25.0973 H   0  0  0  0  0  0  0  0  0  0  0  0
  -19.1074   16.0891   26.7032 H   0  0  0  0  0  0  0  0  0  0  0  0
  -17.4484   15.5841   26.2025 H   0  0  0  0  0  0  0  0  0  0  0  0
  -19.0675   13.8298   26.0044 H   0  0  0  0  0  0  0  0  0  0  0  0
  -18.3427   14.7097   23.2528 H   0  0  0  0  0  0  0  0  0  0  0  0
  -17.1370   14.1290   24.4463 H   0  0  0  0  0  0  0  0  0  0  0  0
  -19.5640   12.6513   23.2870 H   0  0  0  0  0  0  0  0  0  0  0  0
  -16.5665   11.9683   23.0965 H   0  0  0  0  0  0  0  0  0  0  0  0
  -17.9421   11.0434   22.3901 H   0  0  0  0  0  0  0  0  0  0  0  0
  -17.5913   12.7090   21.8157 H   0  0  0  0  0  0  0  0  0  0  0  0
  -19.0446   11.8427   27.0619 H   0  0  0  0  0  0  0  0  0  0  0  0
  -20.9211   13.9412   27.4675 H   0  0  0  0  0  0  0  0  0  0  0  0
  -23.3844   14.1852   27.3460 H   0  0  0  0  0  0  0  0  0  0  0  0
  -24.7038   12.6909   25.8612 H   0  0  0  0  0  0  0  0  0  0  0  0
  -23.5272   10.9579   24.5196 H   0  0  0  0  0  0  0  0  0  0  0  0
  1  2  1  0
  2  3  1  0
  3  4  1  0
  4  5  1  0
  4  6  1  0
  6  7  2  0
  6  8  1  0
  8  9  1  0
  9 10  2  0
 10 11  1  0
 11 12  2  0
 12 13  1  0
 13 14  2  0
 14  9  1  0
  1 15  1  0
  1 16  1  0
  1 17  1  0
  2 18  1  0
  3 19  1  0
  3 20  1  0
  4 21  1  0
  5 22  1  0
  5 23  1  0
  5 24  1  0
  8 25  1  0
 10 26  1  0
 11 27  1  0
 12 28  1  0
 13 29  1  0
M  END
>  <CHROM.1>  (1) 
164.62448595,-174.80683376,-129.96779318,65.74235835,-145.09385899,-0.31580272
0.08636370,0.96413563

>  <Name>  (1) 
CNCC(C)C(=O)Nc1ccccn1

>  <RI>  (1) 
9.66557e+06

>  <Rbt.Current_Directory>  (1) 
/data/out

>  <Rbt.Executable>  (1) 
rbdock ($Id: //depot/dev/client3/rdock/2013.1/src/exe/rbdock.cxx#4 $)

>  <Rbt.Library>  (1) 
libRbt.so (2013.1, Build901 2013/11/27)

>  <Rbt.Parameter_File>  (1) 
/python_libraries/phenodiscovery/docking/templates/RDOCK_TETHER.conf

>  <Rbt.Receptor>  (1) 
/data/out/rdock-opt/grid/rdock-grid.prm

>  <SCORE>  (1) 
-16.9603

>  <SCORE.INTER>  (1) 
-9.41193

>  <SCORE.INTER.CONST>  (1) 
1

>  <SCORE.INTER.POLAR>  (1) 
-0.633655

>  <SCORE.INTER.REPUL>  (1) 
0.00407197

>  <SCORE.INTER.ROT>  (1) 
5

>  <SCORE.INTER.VDW>  (1) 
-17.6779

>  <SCORE.INTER.norm>  (1) 
-0.67228

>  <SCORE.INTRA>  (1) 
-7.54835

>  <SCORE.INTRA.DIHEDRAL>  (1) 
-2.78116

>  <SCORE.INTRA.DIHEDRAL.0>  (1) 
5.1282

>  <SCORE.INTRA.POLAR>  (1) 
-0.744531

>  <SCORE.INTRA.POLAR.0>  (1) 
0

>  <SCORE.INTRA.REPUL>  (1) 
-1

>  <SCORE.INTRA.REPUL.0>  (1) 
1

>  <SCORE.INTRA.VDW>  (1) 
1.37363

>  <SCORE.INTRA.VDW.0>  (1) 
-2.32773

>  <SCORE.INTRA.norm>  (1) 
-0.539168

>  <SCORE.RESTR>  (1) 
0

>  <SCORE.RESTR.CAVITY>  (1) 
0

>  <SCORE.RESTR.norm>  (1) 
0

>  <SCORE.SYSTEM>  (1) 
0

>  <SCORE.SYSTEM.CONST>  (1) 
0

>  <SCORE.SYSTEM.DIHEDRAL>  (1) 
0

>  <SCORE.SYSTEM.norm>  (1) 
0

>  <SCORE.heavy>  (1) 
14

>  <SCORE.norm>  (1) 
-1.21145

>  <TETHERED ATOMS>  (1) 
8,9,12,4,6,10,13,14,11

>  <skeledock_score>  (1) 
61

$$$$
