NC(CNC(=O)N1CCN(c2ccc(F)cc2)CC1)C1CC1
     RDKit          3D

 45 47  0  0  0  0  0  0  0  0999 V2000
  -13.9686   18.2921   23.8465 N   0  0  0  0  0  0  0  0  0  0  0  0
  -14.5279   18.8128   25.0970 C   0  0  0  0  0  0  0  0  0  0  0  0
  -14.6356   17.7074   26.1686 C   0  0  0  0  0  0  0  0  0  0  0  0
  -15.4809   16.5980   25.7219 N   0  0  0  0  0  0  0  0  0  0  0  0
  -15.8354   15.5292   26.6163 C   0  0  0  0  0  0  0  0  0  0  0  0
  -15.3630   15.5259   27.7865 O   0  0  0  0  0  0  0  0  0  0  0  0
  -16.7275   14.4708   26.1980 N   0  0  0  0  0  0  0  0  0  0  0  0
  -16.9089   13.2661   27.0224 C   0  0  0  0  0  0  0  0  0  0  0  0
  -18.3968   13.0726   27.3211 C   0  0  0  0  0  0  0  0  0  0  0  0
  -19.2136   13.2212   26.1043 N   0  0  0  0  0  0  0  0  0  0  0  0
  -20.6449   13.0529   26.1702 C   0  0  0  0  0  0  0  0  0  0  0  0
  -21.3869   13.6378   27.2140 C   0  0  0  0  0  0  0  0  0  0  0  0
  -22.7591   13.3959   27.3285 C   0  0  0  0  0  0  0  0  0  0  0  0
  -23.4052   12.5752   26.4005 C   0  0  0  0  0  0  0  0  0  0  0  0
  -24.7262   12.3052   26.5357 F   0  0  0  0  0  0  0  0  0  0  0  0
  -22.6859   12.0173   25.3421 C   0  0  0  0  0  0  0  0  0  0  0  0
  -21.3145   12.2536   25.2248 C   0  0  0  0  0  0  0  0  0  0  0  0
  -18.5635   13.5012   24.8153 C   0  0  0  0  0  0  0  0  0  0  0  0
  -17.5258   14.6198   24.9703 C   0  0  0  0  0  0  0  0  0  0  0  0
  -13.6197   19.9431   25.6124 C   0  0  0  0  0  0  0  0  0  0  0  0
  -13.8343   21.2986   24.9550 C   0  0  0  0  0  0  0  0  0  0  0  0
  -14.3202   21.0577   26.3761 C   0  0  0  0  0  0  0  0  0  0  0  0
  -14.6349   17.6048   23.4272 H   0  0  0  0  0  0  0  0  0  0  0  0
  -13.0751   17.7852   24.0455 H   0  0  0  0  0  0  0  0  0  0  0  0
  -15.5505   19.2050   24.8912 H   0  0  0  0  0  0  0  0  0  0  0  0
  -15.0782   18.1358   27.0948 H   0  0  0  0  0  0  0  0  0  0  0  0
  -13.6211   17.3253   26.4173 H   0  0  0  0  0  0  0  0  0  0  0  0
  -15.8439   16.5971   24.7440 H   0  0  0  0  0  0  0  0  0  0  0  0
  -16.5237   12.3839   26.4665 H   0  0  0  0  0  0  0  0  0  0  0  0
  -16.3486   13.3240   27.9796 H   0  0  0  0  0  0  0  0  0  0  0  0
  -18.6910   13.8371   28.0694 H   0  0  0  0  0  0  0  0  0  0  0  0
  -18.5579   12.0641   27.7591 H   0  0  0  0  0  0  0  0  0  0  0  0
  -20.9018   14.2726   27.9446 H   0  0  0  0  0  0  0  0  0  0  0  0
  -23.3183   13.8354   28.1445 H   0  0  0  0  0  0  0  0  0  0  0  0
  -23.1869   11.3812   24.6236 H   0  0  0  0  0  0  0  0  0  0  0  0
  -20.7772   11.7714   24.4209 H   0  0  0  0  0  0  0  0  0  0  0  0
  -19.3067   13.8163   24.0505 H   0  0  0  0  0  0  0  0  0  0  0  0
  -18.0662   12.5763   24.4510 H   0  0  0  0  0  0  0  0  0  0  0  0
  -16.8568   14.6124   24.0833 H   0  0  0  0  0  0  0  0  0  0  0  0
  -18.0668   15.5910   25.0055 H   0  0  0  0  0  0  0  0  0  0  0  0
  -12.5748   19.7275   25.9239 H   0  0  0  0  0  0  0  0  0  0  0  0
  -14.6501   21.3570   24.2029 H   0  0  0  0  0  0  0  0  0  0  0  0
  -12.9227   21.9297   24.8930 H   0  0  0  0  0  0  0  0  0  0  0  0
  -13.6950   21.5438   27.1544 H   0  0  0  0  0  0  0  0  0  0  0  0
  -15.4240   20.9713   26.4688 H   0  0  0  0  0  0  0  0  0  0  0  0
  1  2  1  0
  2  3  1  0
  3  4  1  0
  4  5  1  0
  5  6  2  0
  5  7  1  0
  7  8  1  0
  8  9  1  0
  9 10  1  0
 10 11  1  0
 11 12  2  0
 12 13  1  0
 13 14  2  0
 14 15  1  0
 14 16  1  0
 16 17  2  0
 10 18  1  0
 18 19  1  0
  2 20  1  0
 20 21  1  0
 21 22  1  0
 19  7  1  0
 22 20  1  0
 17 11  1  0
  1 23  1  0
  1 24  1  0
  2 25  1  0
  3 26  1  0
  3 27  1  0
  4 28  1  0
  8 29  1  0
  8 30  1  0
  9 31  1  0
  9 32  1  0
 12 33  1  0
 13 34  1  0
 16 35  1  0
 17 36  1  0
 18 37  1  0
 18 38  1  0
 19 39  1  0
 19 40  1  0
 20 41  1  0
 21 42  1  0
 21 43  1  0
 22 44  1  0
 22 45  1  0
M  END
>  <CHROM.1>  (1) 
65.91835542,-59.06761036,-173.20854479,44.39060463,80.90494793,-0.11623772
-0.33918971,-1.84755339

>  <Name>  (1) 
NC(CNC(=O)N1CCN(c2ccc(F)cc2)CC1)C1CC1

>  <RI>  (1) 
0

>  <Rbt.Current_Directory>  (1) 
/data/out

>  <Rbt.Executable>  (1) 
rbdock ($Id: //depot/dev/client3/rdock/2013.1/src/exe/rbdock.cxx#4 $)

>  <Rbt.Library>  (1) 
libRbt.so (2013.1, Build901 2013/11/27)

>  <Rbt.Parameter_File>  (1) 
/python_libraries/phenodiscovery/docking/templates/RDOCK_TETHER.conf

>  <Rbt.Receptor>  (1) 
/data/out/rdock-opt/grid/rdock-grid.prm

>  <SCORE>  (1) 
-18.2101

>  <SCORE.INTER>  (1) 
-18.104

>  <SCORE.INTER.CONST>  (1) 
1

>  <SCORE.INTER.POLAR>  (1) 
-2.49637

>  <SCORE.INTER.REPUL>  (1) 
0.271447

>  <SCORE.INTER.ROT>  (1) 
5

>  <SCORE.INTER.VDW>  (1) 
-21.3736

>  <SCORE.INTER.norm>  (1) 
-0.82291

>  <SCORE.INTRA>  (1) 
-0.107684

>  <SCORE.INTRA.DIHEDRAL>  (1) 
0.449011

>  <SCORE.INTRA.DIHEDRAL.0>  (1) 
8.91253

>  <SCORE.INTRA.POLAR>  (1) 
0

>  <SCORE.INTRA.POLAR.0>  (1) 
0

>  <SCORE.INTRA.REPUL>  (1) 
0

>  <SCORE.INTRA.REPUL.0>  (1) 
0

>  <SCORE.INTRA.VDW>  (1) 
-0.33219

>  <SCORE.INTRA.VDW.0>  (1) 
-0.849936

>  <SCORE.INTRA.norm>  (1) 
-0.00489475

>  <SCORE.RESTR>  (1) 
0.00163719

>  <SCORE.RESTR.CAVITY>  (1) 
0.00163719

>  <SCORE.RESTR.norm>  (1) 
7.44179e-05

>  <SCORE.SYSTEM>  (1) 
0

>  <SCORE.SYSTEM.CONST>  (1) 
0

>  <SCORE.SYSTEM.DIHEDRAL>  (1) 
0

>  <SCORE.SYSTEM.norm>  (1) 
0

>  <SCORE.heavy>  (1) 
22

>  <SCORE.norm>  (1) 
-0.82773

>  <TETHERED ATOMS>  (1) 
10,18,19,15,9,11,5,7,6,8,4,14,13,16,17,12

>  <skeledock_score>  (1) 
123

$$$$
