CC[C@H](CO)NC(=O)CCn1c(C)nc2ccccc21
     RDKit          3D

 41 42  0  0  0  0  0  0  0  0999 V2000
  -17.5668   19.9734   26.4792 C   0  0  0  0  0  0  0  0  0  0  0  0
  -16.2599   19.5789   25.7908 C   0  0  0  0  0  0  0  0  0  0  0  0
  -15.7892   18.1574   26.1607 C   0  0  0  0  0  0  0  0  0  0  0  0
  -14.5381   17.7099   25.3827 C   0  0  0  0  0  0  0  0  0  0  0  0
  -14.8201   17.5390   24.0183 O   0  0  0  0  0  0  0  0  0  0  0  0
  -16.8810   17.2105   25.9123 N   0  0  0  0  0  0  0  0  0  0  0  0
  -17.4918   16.4224   26.9444 C   0  0  0  0  0  0  0  0  0  0  0  0
  -17.0451   16.4539   28.1234 O   0  0  0  0  0  0  0  0  0  0  0  0
  -18.6781   15.5595   26.6289 C   0  0  0  0  0  0  0  0  0  0  0  0
  -18.2661   14.0876   26.5192 C   0  0  0  0  0  0  0  0  0  0  0  0
  -19.2779   13.3281   25.7811 N   0  0  0  0  0  0  0  0  0  0  0  0
  -19.2050   12.8842   24.4972 C   0  0  0  0  0  0  0  0  0  0  0  0
  -18.0341   13.1158   23.5947 C   0  0  0  0  0  0  0  0  0  0  0  0
  -20.2992   12.1807   24.1059 N   0  0  0  0  0  0  0  0  0  0  0  0
  -21.0816   12.2043   25.2003 C   0  0  0  0  0  0  0  0  0  0  0  0
  -22.3430   11.6337   25.3499 C   0  0  0  0  0  0  0  0  0  0  0  0
  -22.9901   11.7923   26.5892 C   0  0  0  0  0  0  0  0  0  0  0  0
  -22.3662   12.5085   27.6363 C   0  0  0  0  0  0  0  0  0  0  0  0
  -21.0887   13.0720   27.4541 C   0  0  0  0  0  0  0  0  0  0  0  0
  -20.4754   12.8940   26.2116 C   0  0  0  0  0  0  0  0  0  0  0  0
  -17.9186   20.9451   26.0729 H   0  0  0  0  0  0  0  0  0  0  0  0
  -17.4152   20.0927   27.5718 H   0  0  0  0  0  0  0  0  0  0  0  0
  -18.3509   19.2089   26.2940 H   0  0  0  0  0  0  0  0  0  0  0  0
  -16.4262   19.6199   24.6919 H   0  0  0  0  0  0  0  0  0  0  0  0
  -15.4736   20.3259   26.0336 H   0  0  0  0  0  0  0  0  0  0  0  0
  -15.5252   18.1569   27.2411 H   0  0  0  0  0  0  0  0  0  0  0  0
  -13.7005   18.4284   25.5336 H   0  0  0  0  0  0  0  0  0  0  0  0
  -14.1946   16.7362   25.7925 H   0  0  0  0  0  0  0  0  0  0  0  0
  -13.9893   17.2026   23.5921 H   0  0  0  0  0  0  0  0  0  0  0  0
  -17.2383   17.1131   24.9346 H   0  0  0  0  0  0  0  0  0  0  0  0
  -19.4417   15.6741   27.4277 H   0  0  0  0  0  0  0  0  0  0  0  0
  -19.1327   15.8959   25.6713 H   0  0  0  0  0  0  0  0  0  0  0  0
  -17.2881   14.0003   25.9969 H   0  0  0  0  0  0  0  0  0  0  0  0
  -18.1276   13.6534   27.5323 H   0  0  0  0  0  0  0  0  0  0  0  0
  -17.1633   12.5318   23.9580 H   0  0  0  0  0  0  0  0  0  0  0  0
  -17.7750   14.1947   23.5784 H   0  0  0  0  0  0  0  0  0  0  0  0
  -18.2774   12.7930   22.5607 H   0  0  0  0  0  0  0  0  0  0  0  0
  -22.8120   11.0897   24.5403 H   0  0  0  0  0  0  0  0  0  0  0  0
  -23.9723   11.3640   26.7412 H   0  0  0  0  0  0  0  0  0  0  0  0
  -22.8745   12.6260   28.5845 H   0  0  0  0  0  0  0  0  0  0  0  0
  -20.6100   13.6264   28.2500 H   0  0  0  0  0  0  0  0  0  0  0  0
  1  2  1  0
  2  3  1  0
  3  4  1  0
  4  5  1  0
  3  6  1  0
  6  7  1  0
  7  8  2  0
  7  9  1  0
  9 10  1  0
 10 11  1  0
 11 12  1  0
 12 13  1  0
 12 14  2  0
 14 15  1  0
 15 16  2  0
 16 17  1  0
 17 18  2  0
 18 19  1  0
 19 20  2  0
 20 11  1  0
 20 15  1  0
  1 21  1  0
  1 22  1  0
  1 23  1  0
  2 24  1  0
  2 25  1  0
  3 26  1  0
  4 27  1  0
  4 28  1  0
  5 29  1  0
  6 30  1  0
  9 31  1  0
  9 32  1  0
 10 33  1  0
 10 34  1  0
 13 35  1  0
 13 36  1  0
 13 37  1  0
 16 38  1  0
 17 39  1  0
 18 40  1  0
 19 41  1  0
M  END
>  <CHROM.1>  (1) 
175.23055682,-67.64939400,-176.81218217,-117.85438959,103.12521592,-160.61337523
104.28753916,-0.51064266,-0.60915989,-2.13096469

>  <Name>  (1) 
CC[C@H](CO)NC(=O)CCn1c(C)nc2ccccc21

>  <RI>  (1) 
4.13841e+07

>  <Rbt.Current_Directory>  (1) 
/data/out

>  <Rbt.Executable>  (1) 
rbdock ($Id: //depot/dev/client3/rdock/2013.1/src/exe/rbdock.cxx#4 $)

>  <Rbt.Library>  (1) 
libRbt.so (2013.1, Build901 2013/11/27)

>  <Rbt.Parameter_File>  (1) 
/python_libraries/phenodiscovery/docking/templates/RDOCK_TETHER.conf

>  <Rbt.Receptor>  (1) 
/data/out/rdock-opt/grid/rdock-grid.prm

>  <SCORE>  (1) 
-16.2769

>  <SCORE.INTER>  (1) 
-14.9597

>  <SCORE.INTER.CONST>  (1) 
1

>  <SCORE.INTER.POLAR>  (1) 
-1.81868

>  <SCORE.INTER.REPUL>  (1) 
0.296991

>  <SCORE.INTER.ROT>  (1) 
6

>  <SCORE.INTER.VDW>  (1) 
-21.6611

>  <SCORE.INTER.norm>  (1) 
-0.747985

>  <SCORE.INTRA>  (1) 
-1.31719

>  <SCORE.INTRA.DIHEDRAL>  (1) 
-2.12687

>  <SCORE.INTRA.DIHEDRAL.0>  (1) 
9.61064

>  <SCORE.INTRA.POLAR>  (1) 
0

>  <SCORE.INTRA.POLAR.0>  (1) 
0

>  <SCORE.INTRA.REPUL>  (1) 
0

>  <SCORE.INTRA.REPUL.0>  (1) 
0

>  <SCORE.INTRA.VDW>  (1) 
-0.253756

>  <SCORE.INTRA.VDW.0>  (1) 
-1.61696

>  <SCORE.INTRA.norm>  (1) 
-0.0658594

>  <SCORE.RESTR>  (1) 
0

>  <SCORE.RESTR.CAVITY>  (1) 
0

>  <SCORE.RESTR.norm>  (1) 
0

>  <SCORE.SYSTEM>  (1) 
0

>  <SCORE.SYSTEM.CONST>  (1) 
0

>  <SCORE.SYSTEM.DIHEDRAL>  (1) 
0

>  <SCORE.SYSTEM.norm>  (1) 
0

>  <SCORE.heavy>  (1) 
20

>  <SCORE.norm>  (1) 
-0.813845

>  <TETHERED ATOMS>  (1) 
13,12,11,8,19,7,6,10,14,20,15,18,17,16,9

>  <skeledock_score>  (1) 
115

$$$$
