CCC(C)(NC(=O)Nc1nc2ccc(OC)cc2s1)C1CC1
     RDKit          3D

 43 45  0  0  0  0  0  0  0  0999 V2000
  -29.6920   15.4638   28.8309 C   0  0  0  0  0  0  0  0  0  0  0  0
  -30.0880   14.8405   30.1320 C   0  0  0  0  0  0  0  0  0  0  0  0
  -28.8915   14.8096   31.1362 C   0  0  0  0  0  0  0  0  0  0  0  0
  -28.7142   16.2762   31.5025 C   0  0  0  0  0  0  0  0  0  0  0  0
  -27.7501   14.3206   30.5386 N   0  0  0  0  0  0  0  0  0  0  0  0
  -26.6076   13.8310   29.9404 C   0  0  0  0  0  0  0  0  0  0  0  0
  -26.5155   12.7625   29.2828 O   0  0  0  0  0  0  0  0  0  0  0  0
  -25.3609   14.5717   30.0340 N   0  0  0  0  0  0  0  0  0  0  0  0
  -24.1700   14.1457   29.3773 C   0  0  0  0  0  0  0  0  0  0  0  0
  -23.9412   13.1213   28.5949 N   0  0  0  0  0  0  0  0  0  0  0  0
  -22.7733   12.9239   28.0651 C   0  0  0  0  0  0  0  0  0  0  0  0
  -22.4139   11.8722   27.2020 C   0  0  0  0  0  0  0  0  0  0  0  0
  -21.1547   11.7894   26.7059 C   0  0  0  0  0  0  0  0  0  0  0  0
  -20.1494   12.6856   26.9858 C   0  0  0  0  0  0  0  0  0  0  0  0
  -18.9052   12.5085   26.4273 O   0  0  0  0  0  0  0  0  0  0  0  0
  -18.6946   12.0892   25.0938 C   0  0  0  0  0  0  0  0  0  0  0  0
  -20.4928   13.7152   27.8285 C   0  0  0  0  0  0  0  0  0  0  0  0
  -21.7841   13.8263   28.3552 C   0  0  0  0  0  0  0  0  0  0  0  0
  -22.6145   14.9095   29.3834 S   0  0  0  0  0  0  0  0  0  0  0  0
  -29.4172   13.9872   32.2892 C   0  0  0  0  0  0  0  0  0  0  0  0
  -28.3466   13.6243   33.3119 C   0  0  0  0  0  0  0  0  0  0  0  0
  -29.0874   12.5817   32.5147 C   0  0  0  0  0  0  0  0  0  0  0  0
  -30.3106   16.3494   28.5782 H   0  0  0  0  0  0  0  0  0  0  0  0
  -29.8325   14.6745   28.0296 H   0  0  0  0  0  0  0  0  0  0  0  0
  -28.6291   15.7569   28.8129 H   0  0  0  0  0  0  0  0  0  0  0  0
  -30.5622   13.8657   30.0641 H   0  0  0  0  0  0  0  0  0  0  0  0
  -30.8213   15.5179   30.6187 H   0  0  0  0  0  0  0  0  0  0  0  0
  -27.6269   16.4832   31.5097 H   0  0  0  0  0  0  0  0  0  0  0  0
  -29.0883   16.5311   32.5032 H   0  0  0  0  0  0  0  0  0  0  0  0
  -29.1535   16.9513   30.7155 H   0  0  0  0  0  0  0  0  0  0  0  0
  -28.4257   13.2244   30.0809 H   0  0  0  0  0  0  0  0  0  0  0  0
  -25.3776   15.4289   30.6058 H   0  0  0  0  0  0  0  0  0  0  0  0
  -23.1357   11.1194   26.9219 H   0  0  0  0  0  0  0  0  0  0  0  0
  -20.9008   10.9611   26.0358 H   0  0  0  0  0  0  0  0  0  0  0  0
  -19.5240   12.3410   24.4232 H   0  0  0  0  0  0  0  0  0  0  0  0
  -18.6587   10.9614   25.1509 H   0  0  0  0  0  0  0  0  0  0  0  0
  -17.6971   12.3986   24.7651 H   0  0  0  0  0  0  0  0  0  0  0  0
  -19.7835   14.4513   28.0973 H   0  0  0  0  0  0  0  0  0  0  0  0
  -30.3802   14.3737   32.6859 H   0  0  0  0  0  0  0  0  0  0  0  0
  -28.5935   13.7641   34.3863 H   0  0  0  0  0  0  0  0  0  0  0  0
  -27.2920   13.7849   33.0762 H   0  0  0  0  0  0  0  0  0  0  0  0
  -29.8194   11.9954   33.1156 H   0  0  0  0  0  0  0  0  0  0  0  0
  -28.5125   11.9342   31.8325 H   0  0  0  0  0  0  0  0  0  0  0  0
  1  2  1  0
  2  3  1  0
  3  4  1  0
  3  5  1  0
  5  6  1  0
  6  7  2  0
  6  8  1  0
  8  9  1  0
  9 10  2  0
 10 11  1  0
 11 12  2  0
 12 13  1  0
 13 14  2  0
 14 15  1  0
 15 16  1  0
 14 17  1  0
 17 18  2  0
 18 19  1  0
  3 20  1  0
 20 21  1  0
 21 22  1  0
 19  9  1  0
 22 20  1  0
 18 11  1  0
  1 23  1  0
  1 24  1  0
  1 25  1  0
  2 26  1  0
  2 27  1  0
  4 28  1  0
  4 29  1  0
  4 30  1  0
  5 31  1  0
  8 32  1  0
 12 33  1  0
 13 34  1  0
 16 35  1  0
 16 36  1  0
 16 37  1  0
 17 38  1  0
 20 39  1  0
 21 40  1  0
 21 41  1  0
 22 42  1  0
 22 43  1  0
M  END
>  <CHROM.1>  (1) 
70.35907470,102.94836862,1.67576397,40.24013037,170.76011486,-2.68995007
-0.27507167,-2.50181885

>  <Name>  (1) 
CCC(C)(NC(=O)Nc1nc2ccc(OC)cc2s1)C1CC1

>  <RI>  (1) 
0

>  <Rbt.Current_Directory>  (1) 
/data/out

>  <Rbt.Executable>  (1) 
rbdock ($Id: //depot/dev/client3/rdock/2013.1/src/exe/rbdock.cxx#4 $)

>  <Rbt.Library>  (1) 
libRbt.so (2013.1, Build901 2013/11/27)

>  <Rbt.Parameter_File>  (1) 
/python_libraries/phenodiscovery/docking/templates/RDOCK_TETHER.conf

>  <Rbt.Receptor>  (1) 
/data/out/rdock-opt/grid/rdock-grid.prm

>  <SCORE>  (1) 
-22.6816

>  <SCORE.INTER>  (1) 
-3.39933

>  <SCORE.INTER.CONST>  (1) 
1

>  <SCORE.INTER.POLAR>  (1) 
0

>  <SCORE.INTER.REPUL>  (1) 
0.108188

>  <SCORE.INTER.ROT>  (1) 
5

>  <SCORE.INTER.VDW>  (1) 
-14.3403

>  <SCORE.INTER.norm>  (1) 
-0.154515

>  <SCORE.INTRA>  (1) 
-19.2822

>  <SCORE.INTRA.DIHEDRAL>  (1) 
2.59379

>  <SCORE.INTRA.DIHEDRAL.0>  (1) 
3.41921

>  <SCORE.INTRA.POLAR>  (1) 
0

>  <SCORE.INTRA.POLAR.0>  (1) 
0

>  <SCORE.INTRA.REPUL>  (1) 
0

>  <SCORE.INTRA.REPUL.0>  (1) 
0

>  <SCORE.INTRA.VDW>  (1) 
-20.5791

>  <SCORE.INTRA.VDW.0>  (1) 
23.3408

>  <SCORE.INTRA.norm>  (1) 
-0.876466

>  <SCORE.RESTR>  (1) 
0

>  <SCORE.RESTR.CAVITY>  (1) 
0

>  <SCORE.RESTR.norm>  (1) 
0

>  <SCORE.SYSTEM>  (1) 
0

>  <SCORE.SYSTEM.CONST>  (1) 
0

>  <SCORE.SYSTEM.DIHEDRAL>  (1) 
0

>  <SCORE.SYSTEM.norm>  (1) 
0

>  <SCORE.heavy>  (1) 
22

>  <SCORE.norm>  (1) 
-1.03098

>  <TETHERED ATOMS>  (1) 
8,9,6,7,3,17,14,18,11,13,16,10,12,15,19

>  <skeledock_score>  (1) 
105

$$$$
