Cc1nc2ccccc2n1CCC(=O)NCC[C@@H](C)O
     RDKit          3D

 41 42  0  0  0  0  0  0  0  0999 V2000
  -17.8852   13.3562   23.9115 C   0  0  0  0  0  0  0  0  0  0  0  0
  -19.1453   13.0393   24.6593 C   0  0  0  0  0  0  0  0  0  0  0  0
  -20.1942   12.4224   24.0560 N   0  0  0  0  0  0  0  0  0  0  0  0
  -21.1175   12.3644   25.0317 C   0  0  0  0  0  0  0  0  0  0  0  0
  -22.4044   11.8392   24.9465 C   0  0  0  0  0  0  0  0  0  0  0  0
  -23.2173   11.9095   26.0927 C   0  0  0  0  0  0  0  0  0  0  0  0
  -22.7289   12.4983   27.2810 C   0  0  0  0  0  0  0  0  0  0  0  0
  -21.4223   13.0196   27.3351 C   0  0  0  0  0  0  0  0  0  0  0  0
  -20.6402   12.9285   26.1801 C   0  0  0  0  0  0  0  0  0  0  0  0
  -19.3801   13.3494   25.9661 N   0  0  0  0  0  0  0  0  0  0  0  0
  -18.4857   14.0290   26.9075 C   0  0  0  0  0  0  0  0  0  0  0  0
  -18.5361   15.5461   26.6943 C   0  0  0  0  0  0  0  0  0  0  0  0
  -17.2294   16.1849   27.0645 C   0  0  0  0  0  0  0  0  0  0  0  0
  -16.7241   15.9538   28.1969 O   0  0  0  0  0  0  0  0  0  0  0  0
  -16.5602   17.0530   26.1410 N   0  0  0  0  0  0  0  0  0  0  0  0
  -15.3169   17.7350   26.4997 C   0  0  0  0  0  0  0  0  0  0  0  0
  -14.4996   18.0714   25.2422 C   0  0  0  0  0  0  0  0  0  0  0  0
  -15.0304   19.2812   24.4436 C   0  0  0  0  0  0  0  0  0  0  0  0
  -14.6164   20.6324   25.0471 C   0  0  0  0  0  0  0  0  0  0  0  0
  -14.6791   19.1922   23.0844 O   0  0  0  0  0  0  0  0  0  0  0  0
  -17.1655   13.9349   24.5221 H   0  0  0  0  0  0  0  0  0  0  0  0
  -18.1358   13.9578   23.0133 H   0  0  0  0  0  0  0  0  0  0  0  0
  -17.4025   12.4108   23.5880 H   0  0  0  0  0  0  0  0  0  0  0  0
  -22.7700   11.3974   24.0286 H   0  0  0  0  0  0  0  0  0  0  0  0
  -24.2238   11.5133   26.0628 H   0  0  0  0  0  0  0  0  0  0  0  0
  -23.3646   12.5508   28.1553 H   0  0  0  0  0  0  0  0  0  0  0  0
  -21.0501   13.4778   28.2412 H   0  0  0  0  0  0  0  0  0  0  0  0
  -18.7742   13.7859   27.9519 H   0  0  0  0  0  0  0  0  0  0  0  0
  -17.4506   13.6464   26.7768 H   0  0  0  0  0  0  0  0  0  0  0  0
  -19.3487   15.9816   27.3141 H   0  0  0  0  0  0  0  0  0  0  0  0
  -18.7624   15.7683   25.6282 H   0  0  0  0  0  0  0  0  0  0  0  0
  -16.9746   17.1899   25.1909 H   0  0  0  0  0  0  0  0  0  0  0  0
  -15.5688   18.6671   27.0476 H   0  0  0  0  0  0  0  0  0  0  0  0
  -14.7266   17.0716   27.1667 H   0  0  0  0  0  0  0  0  0  0  0  0
  -14.4764   17.1811   24.5757 H   0  0  0  0  0  0  0  0  0  0  0  0
  -13.4514   18.2854   25.5463 H   0  0  0  0  0  0  0  0  0  0  0  0
  -16.1400   19.2356   24.4978 H   0  0  0  0  0  0  0  0  0  0  0  0
  -15.1348   21.4538   24.5085 H   0  0  0  0  0  0  0  0  0  0  0  0
  -14.9048   20.6793   26.1188 H   0  0  0  0  0  0  0  0  0  0  0  0
  -13.5225   20.7966   24.9586 H   0  0  0  0  0  0  0  0  0  0  0  0
  -15.1378   19.9256   22.5985 H   0  0  0  0  0  0  0  0  0  0  0  0
  1  2  1  0
  2  3  2  0
  3  4  1  0
  4  5  2  0
  5  6  1  0
  6  7  2  0
  7  8  1  0
  8  9  2  0
  9 10  1  0
 10 11  1  0
 11 12  1  0
 12 13  1  0
 13 14  2  0
 13 15  1  0
 15 16  1  0
 16 17  1  0
 17 18  1  0
 18 19  1  0
 18 20  1  0
 10  2  1  0
  9  4  1  0
  1 21  1  0
  1 22  1  0
  1 23  1  0
  5 24  1  0
  6 25  1  0
  7 26  1  0
  8 27  1  0
 11 28  1  0
 11 29  1  0
 12 30  1  0
 12 31  1  0
 15 32  1  0
 16 33  1  0
 16 34  1  0
 17 35  1  0
 17 36  1  0
 18 37  1  0
 19 38  1  0
 19 39  1  0
 19 40  1  0
 20 41  1  0
M  END
>  <CHROM.1>  (1) 
80.80743737,-150.57567331,-52.40076074,155.03937717,76.48379613,79.84871649
172.90210997,-2.68335923,0.52539626,1.09397731

>  <Name>  (1) 
Cc1nc2ccccc2n1CCC(=O)NCC[C@@H](C)O

>  <RI>  (1) 
3.03577e+07

>  <Rbt.Current_Directory>  (1) 
/data/out

>  <Rbt.Executable>  (1) 
rbdock ($Id: //depot/dev/client3/rdock/2013.1/src/exe/rbdock.cxx#4 $)

>  <Rbt.Library>  (1) 
libRbt.so (2013.1, Build901 2013/11/27)

>  <Rbt.Parameter_File>  (1) 
/python_libraries/phenodiscovery/docking/templates/RDOCK_TETHER.conf

>  <Rbt.Receptor>  (1) 
/data/out/rdock-opt/grid/rdock-grid.prm

>  <SCORE>  (1) 
-17.8602

>  <SCORE.INTER>  (1) 
-21.6065

>  <SCORE.INTER.CONST>  (1) 
1

>  <SCORE.INTER.POLAR>  (1) 
-3.13756

>  <SCORE.INTER.REPUL>  (1) 
0.000467161

>  <SCORE.INTER.ROT>  (1) 
6

>  <SCORE.INTER.VDW>  (1) 
-22.3412

>  <SCORE.INTER.norm>  (1) 
-1.08033

>  <SCORE.INTRA>  (1) 
3.74635

>  <SCORE.INTRA.DIHEDRAL>  (1) 
4.9859

>  <SCORE.INTRA.DIHEDRAL.0>  (1) 
7.05462

>  <SCORE.INTRA.POLAR>  (1) 
0

>  <SCORE.INTRA.POLAR.0>  (1) 
0

>  <SCORE.INTRA.REPUL>  (1) 
0

>  <SCORE.INTRA.REPUL.0>  (1) 
0

>  <SCORE.INTRA.VDW>  (1) 
1.2534

>  <SCORE.INTRA.VDW.0>  (1) 
-0.79816

>  <SCORE.INTRA.norm>  (1) 
0.187317

>  <SCORE.RESTR>  (1) 
0

>  <SCORE.RESTR.CAVITY>  (1) 
0

>  <SCORE.RESTR.norm>  (1) 
0

>  <SCORE.SYSTEM>  (1) 
0

>  <SCORE.SYSTEM.CONST>  (1) 
0

>  <SCORE.SYSTEM.DIHEDRAL>  (1) 
0

>  <SCORE.SYSTEM.norm>  (1) 
0

>  <SCORE.heavy>  (1) 
20

>  <SCORE.norm>  (1) 
-0.893009

>  <TETHERED ATOMS>  (1) 
10,13,11,14,15,12,9,6,5,2,4,7,1,3,8

>  <skeledock_score>  (1) 
115

$$$$
