OCCc1cccc(NCc2cc[nH]n2)c1
     RDKit          3D

 31 32  0  0  0  0  0  0  0  0999 V2000
  -25.3195   14.9323   27.0492 O   0  0  0  0  0  0  0  0  0  0  0  0
  -24.8227   14.4686   28.2745 C   0  0  0  0  0  0  0  0  0  0  0  0
  -24.6698   12.9471   28.2355 C   0  0  0  0  0  0  0  0  0  0  0  0
  -23.6637   12.5157   27.1981 C   0  0  0  0  0  0  0  0  0  0  0  0
  -24.0825   12.1559   25.9058 C   0  0  0  0  0  0  0  0  0  0  0  0
  -23.1475   11.7579   24.9480 C   0  0  0  0  0  0  0  0  0  0  0  0
  -21.7935   11.6943   25.2765 C   0  0  0  0  0  0  0  0  0  0  0  0
  -21.3598   12.0457   26.5595 C   0  0  0  0  0  0  0  0  0  0  0  0
  -19.9756   11.8915   26.8918 N   0  0  0  0  0  0  0  0  0  0  0  0
  -19.2174   12.9082   27.6093 C   0  0  0  0  0  0  0  0  0  0  0  0
  -18.8766   14.0523   26.7047 C   0  0  0  0  0  0  0  0  0  0  0  0
  -19.0292   14.0883   25.3296 C   0  0  0  0  0  0  0  0  0  0  0  0
  -18.5369   15.3237   24.9666 C   0  0  0  0  0  0  0  0  0  0  0  0
  -18.1141   15.9613   26.0726 N   0  0  0  0  0  0  0  0  0  0  0  0
  -18.3137   15.1972   27.1334 N   0  0  0  0  0  0  0  0  0  0  0  0
  -22.2950   12.4625   27.5192 C   0  0  0  0  0  0  0  0  0  0  0  0
  -26.2041   14.4988   26.9296 H   0  0  0  0  0  0  0  0  0  0  0  0
  -25.5326   14.7361   29.0886 H   0  0  0  0  0  0  0  0  0  0  0  0
  -23.8416   14.9462   28.4941 H   0  0  0  0  0  0  0  0  0  0  0  0
  -25.6649   12.4943   28.0310 H   0  0  0  0  0  0  0  0  0  0  0  0
  -24.3431   12.5834   29.2336 H   0  0  0  0  0  0  0  0  0  0  0  0
  -25.1309   12.1921   25.6370 H   0  0  0  0  0  0  0  0  0  0  0  0
  -23.4753   11.4854   23.9531 H   0  0  0  0  0  0  0  0  0  0  0  0
  -21.0794   11.3648   24.5322 H   0  0  0  0  0  0  0  0  0  0  0  0
  -19.4293   11.1601   26.3823 H   0  0  0  0  0  0  0  0  0  0  0  0
  -18.2708   12.4613   27.9813 H   0  0  0  0  0  0  0  0  0  0  0  0
  -19.7946   13.2661   28.4883 H   0  0  0  0  0  0  0  0  0  0  0  0
  -19.4376   13.3218   24.6845 H   0  0  0  0  0  0  0  0  0  0  0  0
  -18.4843   15.7271   23.9641 H   0  0  0  0  0  0  0  0  0  0  0  0
  -17.6890   16.9140   26.1069 H   0  0  0  0  0  0  0  0  0  0  0  0
  -21.9630   12.7116   28.5194 H   0  0  0  0  0  0  0  0  0  0  0  0
  1  2  1  0
  2  3  1  0
  3  4  1  0
  4  5  2  0
  5  6  1  0
  6  7  2  0
  7  8  1  0
  8  9  1  0
  9 10  1  0
 10 11  1  0
 11 12  1  0
 12 13  2  0
 13 14  1  0
 14 15  1  0
  8 16  2  0
 16  4  1  0
 15 11  2  0
  1 17  1  0
  2 18  1  0
  2 19  1  0
  3 20  1  0
  3 21  1  0
  5 22  1  0
  6 23  1  0
  7 24  1  0
  9 25  1  0
 10 26  1  0
 10 27  1  0
 12 28  1  0
 13 29  1  0
 14 30  1  0
 16 31  1  0
M  END
>  <CHROM.1>  (1) 
60.59035617,62.99804157,-94.39586740,135.59439387,-75.68146039,-10.58292838
-2.87664666,-0.51813271,-1.06167217

>  <Name>  (1) 
OCCc1cccc(NCc2cc[nH]n2)c1

>  <RI>  (1) 
4.15856e+07

>  <Rbt.Current_Directory>  (1) 
/data/out

>  <Rbt.Executable>  (1) 
rbdock ($Id: //depot/dev/client3/rdock/2013.1/src/exe/rbdock.cxx#4 $)

>  <Rbt.Library>  (1) 
libRbt.so (2013.1, Build901 2013/11/27)

>  <Rbt.Parameter_File>  (1) 
/python_libraries/phenodiscovery/docking/templates/RDOCK_TETHER.conf

>  <Rbt.Receptor>  (1) 
/data/out/rdock-opt/grid/rdock-grid.prm

>  <SCORE>  (1) 
-16.3455

>  <SCORE.INTER>  (1) 
-15.1619

>  <SCORE.INTER.CONST>  (1) 
1

>  <SCORE.INTER.POLAR>  (1) 
-0.916515

>  <SCORE.INTER.REPUL>  (1) 
0

>  <SCORE.INTER.ROT>  (1) 
5

>  <SCORE.INTER.VDW>  (1) 
-22.4458

>  <SCORE.INTER.norm>  (1) 
-0.947619

>  <SCORE.INTRA>  (1) 
-1.18357

>  <SCORE.INTRA.DIHEDRAL>  (1) 
-4.04902

>  <SCORE.INTRA.DIHEDRAL.0>  (1) 
13.4582

>  <SCORE.INTRA.POLAR>  (1) 
0

>  <SCORE.INTRA.POLAR.0>  (1) 
0

>  <SCORE.INTRA.REPUL>  (1) 
0

>  <SCORE.INTRA.REPUL.0>  (1) 
0

>  <SCORE.INTRA.VDW>  (1) 
0.840942

>  <SCORE.INTRA.VDW.0>  (1) 
-2.07409

>  <SCORE.INTRA.norm>  (1) 
-0.073973

>  <SCORE.RESTR>  (1) 
0

>  <SCORE.RESTR.CAVITY>  (1) 
0

>  <SCORE.RESTR.norm>  (1) 
0

>  <SCORE.SYSTEM>  (1) 
0

>  <SCORE.SYSTEM.CONST>  (1) 
0

>  <SCORE.SYSTEM.DIHEDRAL>  (1) 
0

>  <SCORE.SYSTEM.norm>  (1) 
0

>  <SCORE.heavy>  (1) 
16

>  <SCORE.norm>  (1) 
-1.02159

>  <TETHERED ATOMS>  (1) 
9,8,14,15,11,13,12,10,5,7,6,4,16

>  <skeledock_score>  (1) 
94

$$$$
