COC(=O)c1cccc(NCc2cc[nH]n2)c1
     RDKit          3D

 30 31  0  0  0  0  0  0  0  0999 V2000
  -26.2623   15.3816   28.2610 C   0  0  0  0  0  0  0  0  0  0  0  0
  -25.1131   14.5892   27.9871 O   0  0  0  0  0  0  0  0  0  0  0  0
  -24.9494   13.8843   26.7895 C   0  0  0  0  0  0  0  0  0  0  0  0
  -25.8484   13.9268   25.9045 O   0  0  0  0  0  0  0  0  0  0  0  0
  -23.7215   13.0900   26.5634 C   0  0  0  0  0  0  0  0  0  0  0  0
  -23.6743   12.1361   25.5306 C   0  0  0  0  0  0  0  0  0  0  0  0
  -22.5167   11.3856   25.3140 C   0  0  0  0  0  0  0  0  0  0  0  0
  -21.4036   11.5640   26.1335 C   0  0  0  0  0  0  0  0  0  0  0  0
  -21.4292   12.5089   27.1643 C   0  0  0  0  0  0  0  0  0  0  0  0
  -20.3015   12.6110   28.0409 N   0  0  0  0  0  0  0  0  0  0  0  0
  -18.9304   12.7079   27.5571 C   0  0  0  0  0  0  0  0  0  0  0  0
  -18.8217   13.7363   26.4735 C   0  0  0  0  0  0  0  0  0  0  0  0
  -18.4728   13.5080   25.1539 C   0  0  0  0  0  0  0  0  0  0  0  0
  -18.4711   14.7625   24.5823 C   0  0  0  0  0  0  0  0  0  0  0  0
  -18.7919   15.6662   25.5250 N   0  0  0  0  0  0  0  0  0  0  0  0
  -19.0045   15.0539   26.6779 N   0  0  0  0  0  0  0  0  0  0  0  0
  -22.5844   13.2781   27.3741 C   0  0  0  0  0  0  0  0  0  0  0  0
  -26.1596   15.8372   29.2671 H   0  0  0  0  0  0  0  0  0  0  0  0
  -27.1740   14.7476   28.2441 H   0  0  0  0  0  0  0  0  0  0  0  0
  -26.3542   16.1915   27.5066 H   0  0  0  0  0  0  0  0  0  0  0  0
  -24.5300   11.9718   24.8878 H   0  0  0  0  0  0  0  0  0  0  0  0
  -22.4885   10.6539   24.5169 H   0  0  0  0  0  0  0  0  0  0  0  0
  -20.5188   10.9615   25.9697 H   0  0  0  0  0  0  0  0  0  0  0  0
  -20.4360   12.3434   29.0426 H   0  0  0  0  0  0  0  0  0  0  0  0
  -18.2456   12.9533   28.3965 H   0  0  0  0  0  0  0  0  0  0  0  0
  -18.6214   11.7255   27.1404 H   0  0  0  0  0  0  0  0  0  0  0  0
  -18.2485   12.5625   24.6781 H   0  0  0  0  0  0  0  0  0  0  0  0
  -18.2445   15.0007   23.5515 H   0  0  0  0  0  0  0  0  0  0  0  0
  -18.8649   16.6982   25.3863 H   0  0  0  0  0  0  0  0  0  0  0  0
  -22.6023   13.9942   28.1861 H   0  0  0  0  0  0  0  0  0  0  0  0
  1  2  1  0
  2  3  1  0
  3  4  2  0
  3  5  1  0
  5  6  2  0
  6  7  1  0
  7  8  2  0
  8  9  1  0
  9 10  1  0
 10 11  1  0
 11 12  1  0
 12 13  1  0
 13 14  2  0
 14 15  1  0
 15 16  1  0
  9 17  2  0
 17  5  1  0
 16 12  2  0
  1 18  1  0
  1 19  1  0
  1 20  1  0
  6 21  1  0
  7 22  1  0
  8 23  1  0
 10 24  1  0
 11 25  1  0
 11 26  1  0
 13 27  1  0
 14 28  1  0
 15 29  1  0
 17 30  1  0
M  END
>  <CHROM.1>  (1) 
-0.66123583,164.83709758,49.20217638,47.68744339,-116.21872033,-2.82318635
-0.40293201,-1.07463714

>  <Name>  (1) 
COC(=O)c1cccc(NCc2cc[nH]n2)c1

>  <RI>  (1) 
1.83653e+07

>  <Rbt.Current_Directory>  (1) 
/data/out

>  <Rbt.Executable>  (1) 
rbdock ($Id: //depot/dev/client3/rdock/2013.1/src/exe/rbdock.cxx#4 $)

>  <Rbt.Library>  (1) 
libRbt.so (2013.1, Build901 2013/11/27)

>  <Rbt.Parameter_File>  (1) 
/python_libraries/phenodiscovery/docking/templates/RDOCK_TETHER.conf

>  <Rbt.Receptor>  (1) 
/data/out/rdock-opt/grid/rdock-grid.prm

>  <SCORE>  (1) 
-16.3093

>  <SCORE.INTER>  (1) 
-16.804

>  <SCORE.INTER.CONST>  (1) 
1

>  <SCORE.INTER.POLAR>  (1) 
-1.10003

>  <SCORE.INTER.REPUL>  (1) 
0

>  <SCORE.INTER.ROT>  (1) 
5

>  <SCORE.INTER.VDW>  (1) 
-23.4639

>  <SCORE.INTER.norm>  (1) 
-0.988469

>  <SCORE.INTRA>  (1) 
0.494717

>  <SCORE.INTRA.DIHEDRAL>  (1) 
0.278698

>  <SCORE.INTRA.DIHEDRAL.0>  (1) 
12.8075

>  <SCORE.INTRA.POLAR>  (1) 
0

>  <SCORE.INTRA.POLAR.0>  (1) 
0

>  <SCORE.INTRA.REPUL>  (1) 
0

>  <SCORE.INTRA.REPUL.0>  (1) 
0

>  <SCORE.INTRA.VDW>  (1) 
0.355368

>  <SCORE.INTRA.VDW.0>  (1) 
-2.44069

>  <SCORE.INTRA.norm>  (1) 
0.029101

>  <SCORE.RESTR>  (1) 
0

>  <SCORE.RESTR.CAVITY>  (1) 
0

>  <SCORE.RESTR.norm>  (1) 
0

>  <SCORE.SYSTEM>  (1) 
0

>  <SCORE.SYSTEM.CONST>  (1) 
0

>  <SCORE.SYSTEM.DIHEDRAL>  (1) 
0

>  <SCORE.SYSTEM.norm>  (1) 
0

>  <SCORE.heavy>  (1) 
17

>  <SCORE.norm>  (1) 
-0.959368

>  <TETHERED ATOMS>  (1) 
10,11,15,9,12,14,16,13,6,7,17,8,5

>  <skeledock_score>  (1) 
94

$$$$
