Cc1cc(F)cc(S(=O)(=O)NC(C)C(=O)O)c1
     RDKit          3D

 29 29  0  0  0  0  0  0  0  0999 V2000
  -18.9806   12.4637   27.1631 C   0  0  0  0  0  0  0  0  0  0  0  0
  -20.4637   12.3230   26.9887 C   0  0  0  0  0  0  0  0  0  0  0  0
  -20.9965   11.6673   25.8679 C   0  0  0  0  0  0  0  0  0  0  0  0
  -22.3805   11.5400   25.7205 C   0  0  0  0  0  0  0  0  0  0  0  0
  -22.8895   10.9066   24.6359 F   0  0  0  0  0  0  0  0  0  0  0  0
  -23.2409   12.0652   26.6878 C   0  0  0  0  0  0  0  0  0  0  0  0
  -22.7184   12.7211   27.8101 C   0  0  0  0  0  0  0  0  0  0  0  0
  -23.7904   13.4237   29.0162 S   0  0  0  0  0  0  0  0  0  0  0  0
  -23.2728   13.0817   30.3750 O   0  0  0  0  0  0  0  0  0  0  0  0
  -25.1571   12.8234   28.9179 O   0  0  0  0  0  0  0  0  0  0  0  0
  -23.8779   15.1574   28.8662 N   0  0  0  0  0  0  0  0  0  0  0  0
  -25.1670   15.6970   29.3331 C   0  0  0  0  0  0  0  0  0  0  0  0
  -25.0328   17.1628   29.7657 C   0  0  0  0  0  0  0  0  0  0  0  0
  -26.1803   15.6010   28.2212 C   0  0  0  0  0  0  0  0  0  0  0  0
  -25.7938   15.5289   27.0248 O   0  0  0  0  0  0  0  0  0  0  0  0
  -27.5457   15.5991   28.4966 O   0  0  0  0  0  0  0  0  0  0  0  0
  -21.3311   12.8515   27.9558 C   0  0  0  0  0  0  0  0  0  0  0  0
  -18.4247   11.9980   26.3218 H   0  0  0  0  0  0  0  0  0  0  0  0
  -18.6679   11.9704   28.1074 H   0  0  0  0  0  0  0  0  0  0  0  0
  -18.7113   13.5400   27.2097 H   0  0  0  0  0  0  0  0  0  0  0  0
  -20.3427   11.2542   25.1098 H   0  0  0  0  0  0  0  0  0  0  0  0
  -24.3106   11.9659   26.5573 H   0  0  0  0  0  0  0  0  0  0  0  0
  -23.7911   15.3559   27.8420 H   0  0  0  0  0  0  0  0  0  0  0  0
  -25.5482   15.1056   30.1945 H   0  0  0  0  0  0  0  0  0  0  0  0
  -26.0367   17.6109   29.9297 H   0  0  0  0  0  0  0  0  0  0  0  0
  -24.4960   17.7539   28.9936 H   0  0  0  0  0  0  0  0  0  0  0  0
  -24.4819   17.2371   30.7247 H   0  0  0  0  0  0  0  0  0  0  0  0
  -27.8917   15.6644   29.4462 H   0  0  0  0  0  0  0  0  0  0  0  0
  -20.9265   13.3679   28.8183 H   0  0  0  0  0  0  0  0  0  0  0  0
  1  2  1  0
  2  3  2  0
  3  4  1  0
  4  5  1  0
  4  6  2  0
  6  7  1  0
  7  8  1  0
  8  9  2  0
  8 10  2  0
  8 11  1  0
 11 12  1  0
 12 13  1  0
 12 14  1  0
 14 15  2  0
 14 16  1  0
  7 17  2  0
 17  2  1  0
  1 18  1  0
  1 19  1  0
  1 20  1  0
  3 21  1  0
  6 22  1  0
 11 23  1  0
 12 24  1  0
 13 25  1  0
 13 26  1  0
 13 27  1  0
 16 28  1  0
 17 29  1  0
M  END
>  <CHROM.1>  (1) 
136.09071350,151.56979453,155.46568874,-22.58933853,0.18044350,2.15154132
0.02776306,1.03891847

>  <Name>  (1) 
Cc1cc(F)cc(S(=O)(=O)NC(C)C(=O)O)c1

>  <RI>  (1) 
2.48045e+07

>  <Rbt.Current_Directory>  (1) 
/data/out

>  <Rbt.Executable>  (1) 
rbdock ($Id: //depot/dev/client3/rdock/2013.1/src/exe/rbdock.cxx#4 $)

>  <Rbt.Library>  (1) 
libRbt.so (2013.1, Build901 2013/11/27)

>  <Rbt.Parameter_File>  (1) 
/python_libraries/phenodiscovery/docking/templates/RDOCK_TETHER.conf

>  <Rbt.Receptor>  (1) 
/data/out/rdock-opt/grid/rdock-grid.prm

>  <SCORE>  (1) 
-15.7591

>  <SCORE.INTER>  (1) 
-17.2442

>  <SCORE.INTER.CONST>  (1) 
1

>  <SCORE.INTER.POLAR>  (1) 
-2.2757

>  <SCORE.INTER.REPUL>  (1) 
0

>  <SCORE.INTER.ROT>  (1) 
4

>  <SCORE.INTER.VDW>  (1) 
-18.9069

>  <SCORE.INTER.norm>  (1) 
-1.01437

>  <SCORE.INTRA>  (1) 
1.48511

>  <SCORE.INTRA.DIHEDRAL>  (1) 
2.0151

>  <SCORE.INTRA.DIHEDRAL.0>  (1) 
2.451

>  <SCORE.INTRA.POLAR>  (1) 
0

>  <SCORE.INTRA.POLAR.0>  (1) 
0

>  <SCORE.INTRA.REPUL>  (1) 
0

>  <SCORE.INTRA.REPUL.0>  (1) 
0

>  <SCORE.INTRA.VDW>  (1) 
0.477561

>  <SCORE.INTRA.VDW.0>  (1) 
-3.17211

>  <SCORE.INTRA.norm>  (1) 
0.0873595

>  <SCORE.RESTR>  (1) 
0

>  <SCORE.RESTR.CAVITY>  (1) 
0

>  <SCORE.RESTR.norm>  (1) 
0

>  <SCORE.SYSTEM>  (1) 
0

>  <SCORE.SYSTEM.CONST>  (1) 
0

>  <SCORE.SYSTEM.DIHEDRAL>  (1) 
0

>  <SCORE.SYSTEM.norm>  (1) 
0

>  <SCORE.heavy>  (1) 
17

>  <SCORE.norm>  (1) 
-0.927008

>  <TETHERED ATOMS>  (1) 
8,10,9,11,7,3,2,5,1,17,6,4

>  <skeledock_score>  (1) 
91

$$$$
