O=C(O)CNC(=O)CN1CCN(c2ccc(F)cc2)CC1
     RDKit          3D

 39 40  0  0  0  0  0  0  0  0999 V2000
  -12.9505   19.0434   24.8040 O   0  0  0  0  0  0  0  0  0  0  0  0
  -14.1391   19.3078   24.4841 C   0  0  0  0  0  0  0  0  0  0  0  0
  -14.4185   19.7560   23.1965 O   0  0  0  0  0  0  0  0  0  0  0  0
  -15.2292   19.1911   25.5020 C   0  0  0  0  0  0  0  0  0  0  0  0
  -15.1453   17.8902   26.1612 N   0  0  0  0  0  0  0  0  0  0  0  0
  -16.2803   17.2318   26.7426 C   0  0  0  0  0  0  0  0  0  0  0  0
  -17.4102   17.7914   26.7517 O   0  0  0  0  0  0  0  0  0  0  0  0
  -16.1441   15.8493   27.3092 C   0  0  0  0  0  0  0  0  0  0  0  0
  -17.2578   14.9963   26.8498 N   0  0  0  0  0  0  0  0  0  0  0  0
  -17.2139   13.6798   27.5258 C   0  0  0  0  0  0  0  0  0  0  0  0
  -18.1279   12.6294   26.8593 C   0  0  0  0  0  0  0  0  0  0  0  0
  -19.0650   13.2478   25.9139 N   0  0  0  0  0  0  0  0  0  0  0  0
  -20.4571   12.8894   25.9159 C   0  0  0  0  0  0  0  0  0  0  0  0
  -21.0069   12.1739   24.8397 C   0  0  0  0  0  0  0  0  0  0  0  0
  -22.3375   11.7464   24.8852 C   0  0  0  0  0  0  0  0  0  0  0  0
  -23.1284   12.0343   26.0017 C   0  0  0  0  0  0  0  0  0  0  0  0
  -24.4065   11.5874   26.0613 F   0  0  0  0  0  0  0  0  0  0  0  0
  -22.5952   12.7670   27.0657 C   0  0  0  0  0  0  0  0  0  0  0  0
  -21.2639   13.1899   27.0265 C   0  0  0  0  0  0  0  0  0  0  0  0
  -18.5786   14.2301   24.9374 C   0  0  0  0  0  0  0  0  0  0  0  0
  -17.2446   14.8312   25.3843 C   0  0  0  0  0  0  0  0  0  0  0  0
  -15.3491   20.0631   22.9397 H   0  0  0  0  0  0  0  0  0  0  0  0
  -15.1207   19.9936   26.2620 H   0  0  0  0  0  0  0  0  0  0  0  0
  -16.2153   19.3316   25.0094 H   0  0  0  0  0  0  0  0  0  0  0  0
  -14.2238   17.3968   26.1529 H   0  0  0  0  0  0  0  0  0  0  0  0
  -15.1611   15.4049   27.0331 H   0  0  0  0  0  0  0  0  0  0  0  0
  -16.1598   15.9452   28.4183 H   0  0  0  0  0  0  0  0  0  0  0  0
  -16.1728   13.2824   27.5508 H   0  0  0  0  0  0  0  0  0  0  0  0
  -17.5456   13.8143   28.5787 H   0  0  0  0  0  0  0  0  0  0  0  0
  -18.6638   12.0396   27.6346 H   0  0  0  0  0  0  0  0  0  0  0  0
  -17.4925   11.9138   26.2936 H   0  0  0  0  0  0  0  0  0  0  0  0
  -20.3951   11.9167   23.9842 H   0  0  0  0  0  0  0  0  0  0  0  0
  -22.7497   11.1777   24.0617 H   0  0  0  0  0  0  0  0  0  0  0  0
  -23.2079   12.9925   27.9291 H   0  0  0  0  0  0  0  0  0  0  0  0
  -20.8596   13.7434   27.8640 H   0  0  0  0  0  0  0  0  0  0  0  0
  -18.4618   13.7511   23.9419 H   0  0  0  0  0  0  0  0  0  0  0  0
  -19.3211   15.0539   24.8485 H   0  0  0  0  0  0  0  0  0  0  0  0
  -16.4053   14.1681   25.0722 H   0  0  0  0  0  0  0  0  0  0  0  0
  -17.1156   15.8088   24.8707 H   0  0  0  0  0  0  0  0  0  0  0  0
  1  2  2  0
  2  3  1  0
  2  4  1  0
  4  5  1  0
  5  6  1  0
  6  7  2  0
  6  8  1  0
  8  9  1  0
  9 10  1  0
 10 11  1  0
 11 12  1  0
 12 13  1  0
 13 14  2  0
 14 15  1  0
 15 16  2  0
 16 17  1  0
 16 18  1  0
 18 19  2  0
 12 20  1  0
 20 21  1  0
 21  9  1  0
 19 13  1  0
  3 22  1  0
  4 23  1  0
  4 24  1  0
  5 25  1  0
  8 26  1  0
  8 27  1  0
 10 28  1  0
 10 29  1  0
 11 30  1  0
 11 31  1  0
 14 32  1  0
 15 33  1  0
 18 34  1  0
 19 35  1  0
 20 36  1  0
 20 37  1  0
 21 38  1  0
 21 39  1  0
M  END
>  <CHROM.1>  (1) 
-173.86716132,-50.20662384,-153.24324745,-133.83119085,-173.58265517,-111.37620989
-0.18062925,-0.39417235,-1.77006028

>  <Name>  (1) 
O=C(O)CNC(=O)CN1CCN(c2ccc(F)cc2)CC1

>  <RI>  (1) 
0

>  <Rbt.Current_Directory>  (1) 
/data/out

>  <Rbt.Executable>  (1) 
rbdock ($Id: //depot/dev/client3/rdock/2013.1/src/exe/rbdock.cxx#4 $)

>  <Rbt.Library>  (1) 
libRbt.so (2013.1, Build901 2013/11/27)

>  <Rbt.Parameter_File>  (1) 
/python_libraries/phenodiscovery/docking/templates/RDOCK_TETHER.conf

>  <Rbt.Receptor>  (1) 
/data/out/rdock-opt/grid/rdock-grid.prm

>  <SCORE>  (1) 
-15.811

>  <SCORE.INTER>  (1) 
-16.8281

>  <SCORE.INTER.CONST>  (1) 
1

>  <SCORE.INTER.POLAR>  (1) 
-2.23937

>  <SCORE.INTER.REPUL>  (1) 
0

>  <SCORE.INTER.ROT>  (1) 
5

>  <SCORE.INTER.VDW>  (1) 
-19.6142

>  <SCORE.INTER.norm>  (1) 
-0.801337

>  <SCORE.INTRA>  (1) 
1.0171

>  <SCORE.INTRA.DIHEDRAL>  (1) 
2.61763

>  <SCORE.INTRA.DIHEDRAL.0>  (1) 
12.3254

>  <SCORE.INTRA.POLAR>  (1) 
0

>  <SCORE.INTRA.POLAR.0>  (1) 
0

>  <SCORE.INTRA.REPUL>  (1) 
0

>  <SCORE.INTRA.REPUL.0>  (1) 
0

>  <SCORE.INTRA.VDW>  (1) 
-0.291719

>  <SCORE.INTRA.VDW.0>  (1) 
-1.62386

>  <SCORE.INTRA.norm>  (1) 
0.0484333

>  <SCORE.RESTR>  (1) 
0

>  <SCORE.RESTR.CAVITY>  (1) 
0

>  <SCORE.RESTR.norm>  (1) 
0

>  <SCORE.SYSTEM>  (1) 
0

>  <SCORE.SYSTEM.CONST>  (1) 
0

>  <SCORE.SYSTEM.DIHEDRAL>  (1) 
0

>  <SCORE.SYSTEM.norm>  (1) 
0

>  <SCORE.heavy>  (1) 
21

>  <SCORE.norm>  (1) 
-0.752904

>  <TETHERED ATOMS>  (1) 
12,21,20,11,13,17,10,8,16,9,14,19,15,18

>  <skeledock_score>  (1) 
107

$$$$
