Cc1nc2ccccc2n1CCC(=O)NCCC(N)=O
     RDKit          3D

 38 39  0  0  0  0  0  0  0  0999 V2000
  -18.1600   13.0060   23.4120 C   0  0  0  0  0  0  0  0  0  0  0  0
  -19.1123   12.6900   24.5241 C   0  0  0  0  0  0  0  0  0  0  0  0
  -20.1781   11.8678   24.3450 N   0  0  0  0  0  0  0  0  0  0  0  0
  -20.7905   11.8981   25.5409 C   0  0  0  0  0  0  0  0  0  0  0  0
  -21.9941   11.2890   25.8863 C   0  0  0  0  0  0  0  0  0  0  0  0
  -22.4889   11.5053   27.1851 C   0  0  0  0  0  0  0  0  0  0  0  0
  -21.7736   12.3121   28.0977 C   0  0  0  0  0  0  0  0  0  0  0  0
  -20.5687   12.9286   27.7120 C   0  0  0  0  0  0  0  0  0  0  0  0
  -20.1104   12.7020   26.4102 C   0  0  0  0  0  0  0  0  0  0  0  0
  -19.0475   13.2303   25.7743 N   0  0  0  0  0  0  0  0  0  0  0  0
  -18.2371   14.3771   26.2002 C   0  0  0  0  0  0  0  0  0  0  0  0
  -19.0346   15.6722   26.1583 C   0  0  0  0  0  0  0  0  0  0  0  0
  -18.1599   16.8499   26.4725 C   0  0  0  0  0  0  0  0  0  0  0  0
  -18.4086   17.5614   27.4850 O   0  0  0  0  0  0  0  0  0  0  0  0
  -17.0661   17.1819   25.6102 N   0  0  0  0  0  0  0  0  0  0  0  0
  -16.1933   18.3227   25.8924 C   0  0  0  0  0  0  0  0  0  0  0  0
  -14.8709   18.2259   25.1170 C   0  0  0  0  0  0  0  0  0  0  0  0
  -14.0602   19.4955   25.1404 C   0  0  0  0  0  0  0  0  0  0  0  0
  -14.2875   20.4940   24.1469 N   0  0  0  0  0  0  0  0  0  0  0  0
  -13.1859   19.6931   26.0275 O   0  0  0  0  0  0  0  0  0  0  0  0
  -18.1228   14.1008   23.2383 H   0  0  0  0  0  0  0  0  0  0  0  0
  -18.4935   12.5131   22.4745 H   0  0  0  0  0  0  0  0  0  0  0  0
  -17.1478   12.6285   23.6581 H   0  0  0  0  0  0  0  0  0  0  0  0
  -22.5355   10.6758   25.1777 H   0  0  0  0  0  0  0  0  0  0  0  0
  -23.4206   11.0460   27.4887 H   0  0  0  0  0  0  0  0  0  0  0  0
  -22.1605   12.4667   29.0965 H   0  0  0  0  0  0  0  0  0  0  0  0
  -20.0284   13.5555   28.4079 H   0  0  0  0  0  0  0  0  0  0  0  0
  -17.8639   14.1918   27.2307 H   0  0  0  0  0  0  0  0  0  0  0  0
  -17.3386   14.4835   25.5566 H   0  0  0  0  0  0  0  0  0  0  0  0
  -19.8596   15.6466   26.8968 H   0  0  0  0  0  0  0  0  0  0  0  0
  -19.4889   15.7817   25.1501 H   0  0  0  0  0  0  0  0  0  0  0  0
  -16.8896   16.5885   24.7677 H   0  0  0  0  0  0  0  0  0  0  0  0
  -16.7139   19.2577   25.5922 H   0  0  0  0  0  0  0  0  0  0  0  0
  -15.9862   18.3785   26.9836 H   0  0  0  0  0  0  0  0  0  0  0  0
  -14.2602   17.3968   25.5353 H   0  0  0  0  0  0  0  0  0  0  0  0
  -15.0986   17.9779   24.0583 H   0  0  0  0  0  0  0  0  0  0  0  0
  -13.7339   21.3792   24.1520 H   0  0  0  0  0  0  0  0  0  0  0  0
  -15.0082   20.3507   23.4050 H   0  0  0  0  0  0  0  0  0  0  0  0
  1  2  1  0
  2  3  2  0
  3  4  1  0
  4  5  2  0
  5  6  1  0
  6  7  2  0
  7  8  1  0
  8  9  2  0
  9 10  1  0
 10 11  1  0
 11 12  1  0
 12 13  1  0
 13 14  2  0
 13 15  1  0
 15 16  1  0
 16 17  1  0
 17 18  1  0
 18 19  1  0
 18 20  2  0
 10  2  1  0
  9  4  1  0
  1 21  1  0
  1 22  1  0
  1 23  1  0
  5 24  1  0
  6 25  1  0
  7 26  1  0
  8 27  1  0
 11 28  1  0
 11 29  1  0
 12 30  1  0
 12 31  1  0
 15 32  1  0
 16 33  1  0
 16 34  1  0
 17 35  1  0
 17 36  1  0
 19 37  1  0
 19 38  1  0
M  END
>  <CHROM.1>  (1) 
95.07781176,-174.72701340,-118.25803333,162.13724320,167.98168907,-87.96672316
2.47316256,-0.78310983,-2.38718915

>  <Name>  (1) 
Cc1nc2ccccc2n1CCC(=O)NCCC(N)=O

>  <RI>  (1) 
1.36296e+07

>  <Rbt.Current_Directory>  (1) 
/data/out

>  <Rbt.Executable>  (1) 
rbdock ($Id: //depot/dev/client3/rdock/2013.1/src/exe/rbdock.cxx#4 $)

>  <Rbt.Library>  (1) 
libRbt.so (2013.1, Build901 2013/11/27)

>  <Rbt.Parameter_File>  (1) 
/python_libraries/phenodiscovery/docking/templates/RDOCK_TETHER.conf

>  <Rbt.Receptor>  (1) 
/data/out/rdock-opt/grid/rdock-grid.prm

>  <SCORE>  (1) 
-17.8787

>  <SCORE.INTER>  (1) 
-17.0153

>  <SCORE.INTER.CONST>  (1) 
1

>  <SCORE.INTER.POLAR>  (1) 
-1.68523

>  <SCORE.INTER.REPUL>  (1) 
0

>  <SCORE.INTER.ROT>  (1) 
6

>  <SCORE.INTER.VDW>  (1) 
-22.6855

>  <SCORE.INTER.norm>  (1) 
-0.850763

>  <SCORE.INTRA>  (1) 
-0.86341

>  <SCORE.INTRA.DIHEDRAL>  (1) 
0.955967

>  <SCORE.INTRA.DIHEDRAL.0>  (1) 
7.00468

>  <SCORE.INTRA.POLAR>  (1) 
0

>  <SCORE.INTRA.POLAR.0>  (1) 
0

>  <SCORE.INTRA.REPUL>  (1) 
0

>  <SCORE.INTRA.REPUL.0>  (1) 
0

>  <SCORE.INTRA.VDW>  (1) 
-1.34139

>  <SCORE.INTRA.VDW.0>  (1) 
-0.63154

>  <SCORE.INTRA.norm>  (1) 
-0.0431705

>  <SCORE.RESTR>  (1) 
0

>  <SCORE.RESTR.CAVITY>  (1) 
0

>  <SCORE.RESTR.norm>  (1) 
0

>  <SCORE.SYSTEM>  (1) 
0

>  <SCORE.SYSTEM.CONST>  (1) 
0

>  <SCORE.SYSTEM.DIHEDRAL>  (1) 
0

>  <SCORE.SYSTEM.norm>  (1) 
0

>  <SCORE.heavy>  (1) 
20

>  <SCORE.norm>  (1) 
-0.893933

>  <TETHERED ATOMS>  (1) 
6,11,9,14,13,12,10,15,5,8,2,7,1,3,4

>  <skeledock_score>  (1) 
115

$$$$
