CS(=O)(=O)NCc1ccc(C(=O)N2CCNCC2)o1
     RDKit          3D

 36 37  0  0  0  0  0  0  0  0999 V2000
  -25.8218   15.9630   29.6907 C   0  0  0  0  0  0  0  0  0  0  0  0
  -26.2237   15.3625   28.0632 S   0  0  0  0  0  0  0  0  0  0  0  0
  -27.7013   15.0980   27.9978 O   0  0  0  0  0  0  0  0  0  0  0  0
  -25.8668   16.4052   27.0404 O   0  0  0  0  0  0  0  0  0  0  0  0
  -25.3707   13.8834   27.7362 N   0  0  0  0  0  0  0  0  0  0  0  0
  -23.9406   14.0631   27.9931 C   0  0  0  0  0  0  0  0  0  0  0  0
  -23.1497   13.1850   27.0762 C   0  0  0  0  0  0  0  0  0  0  0  0
  -23.6154   12.0584   26.4266 C   0  0  0  0  0  0  0  0  0  0  0  0
  -22.5463   11.5788   25.6996 C   0  0  0  0  0  0  0  0  0  0  0  0
  -21.4953   12.4407   25.9572 C   0  0  0  0  0  0  0  0  0  0  0  0
  -20.1401   12.3368   25.3832 C   0  0  0  0  0  0  0  0  0  0  0  0
  -19.9424   11.5238   24.4400 O   0  0  0  0  0  0  0  0  0  0  0  0
  -19.0544   13.1694   25.8356 N   0  0  0  0  0  0  0  0  0  0  0  0
  -18.0471   13.6573   24.8918 C   0  0  0  0  0  0  0  0  0  0  0  0
  -18.0112   15.1898   24.9532 C   0  0  0  0  0  0  0  0  0  0  0  0
  -17.8367   15.6712   26.3339 N   0  0  0  0  0  0  0  0  0  0  0  0
  -18.8932   15.1611   27.2245 C   0  0  0  0  0  0  0  0  0  0  0  0
  -18.9214   13.6293   27.2199 C   0  0  0  0  0  0  0  0  0  0  0  0
  -21.8886   13.3896   26.7758 O   0  0  0  0  0  0  0  0  0  0  0  0
  -26.5081   16.7925   29.9591 H   0  0  0  0  0  0  0  0  0  0  0  0
  -25.9332   15.1407   30.4271 H   0  0  0  0  0  0  0  0  0  0  0  0
  -24.7780   16.3373   29.7090 H   0  0  0  0  0  0  0  0  0  0  0  0
  -25.4963   13.6865   26.7159 H   0  0  0  0  0  0  0  0  0  0  0  0
  -23.6420   15.1199   27.8168 H   0  0  0  0  0  0  0  0  0  0  0  0
  -23.7047   13.7946   29.0451 H   0  0  0  0  0  0  0  0  0  0  0  0
  -24.6113   11.6381   26.4738 H   0  0  0  0  0  0  0  0  0  0  0  0
  -22.5375   10.7052   25.0609 H   0  0  0  0  0  0  0  0  0  0  0  0
  -18.2781   13.3426   23.8509 H   0  0  0  0  0  0  0  0  0  0  0  0
  -17.0517   13.2456   25.1665 H   0  0  0  0  0  0  0  0  0  0  0  0
  -17.1731   15.5623   24.3258 H   0  0  0  0  0  0  0  0  0  0  0  0
  -18.9547   15.6020   24.5322 H   0  0  0  0  0  0  0  0  0  0  0  0
  -16.9073   15.3440   26.6898 H   0  0  0  0  0  0  0  0  0  0  0  0
  -19.8812   15.5569   26.9015 H   0  0  0  0  0  0  0  0  0  0  0  0
  -18.7071   15.5216   28.2590 H   0  0  0  0  0  0  0  0  0  0  0  0
  -17.9671   13.2438   27.6402 H   0  0  0  0  0  0  0  0  0  0  0  0
  -19.7331   13.2497   27.8717 H   0  0  0  0  0  0  0  0  0  0  0  0
  1  2  1  0
  2  3  2  0
  2  4  2  0
  2  5  1  0
  5  6  1  0
  6  7  1  0
  7  8  2  0
  8  9  1  0
  9 10  2  0
 10 11  1  0
 11 12  2  0
 11 13  1  0
 13 14  1  0
 14 15  1  0
 15 16  1  0
 16 17  1  0
 17 18  1  0
 10 19  1  0
 19  7  1  0
 18 13  1  0
  1 20  1  0
  1 21  1  0
  1 22  1  0
  5 23  1  0
  6 24  1  0
  6 25  1  0
  8 26  1  0
  9 27  1  0
 14 28  1  0
 14 29  1  0
 15 30  1  0
 15 31  1  0
 16 32  1  0
 17 33  1  0
 17 34  1  0
 18 35  1  0
 18 36  1  0
M  END
>  <CHROM.1>  (1) 
-52.09547250,-149.08074222,-21.04010976,10.60400479,-2.80789179,0.38779004
0.69584983

>  <Name>  (1) 
CS(=O)(=O)NCc1ccc(C(=O)N2CCNCC2)o1

>  <RI>  (1) 
1.00115e+07

>  <Rbt.Current_Directory>  (1) 
/data/out

>  <Rbt.Executable>  (1) 
rbdock ($Id: //depot/dev/client3/rdock/2013.1/src/exe/rbdock.cxx#4 $)

>  <Rbt.Library>  (1) 
libRbt.so (2013.1, Build901 2013/11/27)

>  <Rbt.Parameter_File>  (1) 
/python_libraries/phenodiscovery/docking/templates/RDOCK_TETHER.conf

>  <Rbt.Receptor>  (1) 
/data/out/rdock-opt/grid/rdock-grid.prm

>  <SCORE>  (1) 
-16.0239

>  <SCORE.INTER>  (1) 
-17.4777

>  <SCORE.INTER.CONST>  (1) 
1

>  <SCORE.INTER.POLAR>  (1) 
-1.86559

>  <SCORE.INTER.REPUL>  (1) 
0

>  <SCORE.INTER.ROT>  (1) 
4

>  <SCORE.INTER.VDW>  (1) 
-20.5347

>  <SCORE.INTER.norm>  (1) 
-0.919879

>  <SCORE.INTRA>  (1) 
1.35247

>  <SCORE.INTRA.DIHEDRAL>  (1) 
1.74862

>  <SCORE.INTRA.DIHEDRAL.0>  (1) 
0.748765

>  <SCORE.INTRA.POLAR>  (1) 
0

>  <SCORE.INTRA.POLAR.0>  (1) 
0

>  <SCORE.INTRA.REPUL>  (1) 
0

>  <SCORE.INTRA.REPUL.0>  (1) 
0

>  <SCORE.INTRA.VDW>  (1) 
0.478165

>  <SCORE.INTRA.VDW.0>  (1) 
-1.83423

>  <SCORE.INTRA.norm>  (1) 
0.0711828

>  <SCORE.RESTR>  (1) 
0.1013

>  <SCORE.RESTR.CAVITY>  (1) 
0.1013

>  <SCORE.RESTR.norm>  (1) 
0.00533156

>  <SCORE.SYSTEM>  (1) 
0

>  <SCORE.SYSTEM.CONST>  (1) 
0

>  <SCORE.SYSTEM.DIHEDRAL>  (1) 
0

>  <SCORE.SYSTEM.norm>  (1) 
0

>  <SCORE.heavy>  (1) 
19

>  <SCORE.norm>  (1) 
-0.843364

>  <TETHERED ATOMS>  (1) 
11,12,10,13,16,7,8,9,19,18,17,14,15

>  <skeledock_score>  (1) 
90

$$$$
