Cc1nc2ccccc2n1CCC(=O)NCCN
     RDKit          3D

 36 37  0  0  0  0  0  0  0  0999 V2000
  -18.2861   12.7397   23.4527 C   0  0  0  0  0  0  0  0  0  0  0  0
  -19.2811   12.5946   24.5629 C   0  0  0  0  0  0  0  0  0  0  0  0
  -20.4582   11.9400   24.3910 N   0  0  0  0  0  0  0  0  0  0  0  0
  -21.0654   12.0874   25.5808 C   0  0  0  0  0  0  0  0  0  0  0  0
  -22.3493   11.6753   25.9279 C   0  0  0  0  0  0  0  0  0  0  0  0
  -22.8126   11.9909   27.2180 C   0  0  0  0  0  0  0  0  0  0  0  0
  -21.9881   12.6988   28.1205 C   0  0  0  0  0  0  0  0  0  0  0  0
  -20.7016   13.1174   27.7331 C   0  0  0  0  0  0  0  0  0  0  0  0
  -20.2758   12.7967   26.4399 C   0  0  0  0  0  0  0  0  0  0  0  0
  -19.1416   13.1444   25.8028 N   0  0  0  0  0  0  0  0  0  0  0  0
  -18.1694   14.1642   26.2125 C   0  0  0  0  0  0  0  0  0  0  0  0
  -18.7155   15.5703   26.0138 C   0  0  0  0  0  0  0  0  0  0  0  0
  -17.6908   16.5989   26.3901 C   0  0  0  0  0  0  0  0  0  0  0  0
  -17.8665   17.3089   27.4186 O   0  0  0  0  0  0  0  0  0  0  0  0
  -16.5350   16.7941   25.5659 N   0  0  0  0  0  0  0  0  0  0  0  0
  -15.4649   17.7255   25.9197 C   0  0  0  0  0  0  0  0  0  0  0  0
  -15.4547   18.9429   24.9829 C   0  0  0  0  0  0  0  0  0  0  0  0
  -14.7991   18.6476   23.7096 N   0  0  0  0  0  0  0  0  0  0  0  0
  -17.3447   12.2169   23.7138 H   0  0  0  0  0  0  0  0  0  0  0  0
  -18.0810   13.8125   23.2591 H   0  0  0  0  0  0  0  0  0  0  0  0
  -18.6863   12.2854   22.5219 H   0  0  0  0  0  0  0  0  0  0  0  0
  -22.9737   11.1367   25.2269 H   0  0  0  0  0  0  0  0  0  0  0  0
  -23.8049   11.6848   27.5226 H   0  0  0  0  0  0  0  0  0  0  0  0
  -22.3525   12.9310   29.1127 H   0  0  0  0  0  0  0  0  0  0  0  0
  -20.0762   13.6694   28.4211 H   0  0  0  0  0  0  0  0  0  0  0  0
  -17.2240   14.0582   25.6397 H   0  0  0  0  0  0  0  0  0  0  0  0
  -17.9075   14.0040   27.2809 H   0  0  0  0  0  0  0  0  0  0  0  0
  -19.0167   15.6913   24.9510 H   0  0  0  0  0  0  0  0  0  0  0  0
  -19.6155   15.7323   26.6388 H   0  0  0  0  0  0  0  0  0  0  0  0
  -16.4585   16.2762   24.6616 H   0  0  0  0  0  0  0  0  0  0  0  0
  -14.4842   17.2050   25.8698 H   0  0  0  0  0  0  0  0  0  0  0  0
  -15.6062   18.0701   26.9672 H   0  0  0  0  0  0  0  0  0  0  0  0
  -14.9424   19.7994   25.4710 H   0  0  0  0  0  0  0  0  0  0  0  0
  -16.5034   19.2514   24.7834 H   0  0  0  0  0  0  0  0  0  0  0  0
  -15.0799   19.3688   23.0059 H   0  0  0  0  0  0  0  0  0  0  0  0
  -15.1274   17.7168   23.3641 H   0  0  0  0  0  0  0  0  0  0  0  0
  1  2  1  0
  2  3  2  0
  3  4  1  0
  4  5  2  0
  5  6  1  0
  6  7  2  0
  7  8  1  0
  8  9  2  0
  9 10  1  0
 10 11  1  0
 11 12  1  0
 12 13  1  0
 13 14  2  0
 13 15  1  0
 15 16  1  0
 16 17  1  0
 17 18  1  0
 10  2  1  0
  9  4  1  0
  1 19  1  0
  1 20  1  0
  1 21  1  0
  5 22  1  0
  6 23  1  0
  7 24  1  0
  8 25  1  0
 11 26  1  0
 11 27  1  0
 12 28  1  0
 12 29  1  0
 15 30  1  0
 16 31  1  0
 16 32  1  0
 17 33  1  0
 17 34  1  0
 18 35  1  0
 18 36  1  0
M  END
>  <CHROM.1>  (1) 
89.66043232,-177.92239657,-110.71941719,-110.04390066,-80.23555611,161.80635951
-2.62366671,0.67210326,0.82931868

>  <Name>  (1) 
Cc1nc2ccccc2n1CCC(=O)NCCN

>  <RI>  (1) 
3.6301e+07

>  <Rbt.Current_Directory>  (1) 
/data/out

>  <Rbt.Executable>  (1) 
rbdock ($Id: //depot/dev/client3/rdock/2013.1/src/exe/rbdock.cxx#4 $)

>  <Rbt.Library>  (1) 
libRbt.so (2013.1, Build901 2013/11/27)

>  <Rbt.Parameter_File>  (1) 
/python_libraries/phenodiscovery/docking/templates/RDOCK_TETHER.conf

>  <Rbt.Receptor>  (1) 
/data/out/rdock-opt/grid/rdock-grid.prm

>  <SCORE>  (1) 
-17.5338

>  <SCORE.INTER>  (1) 
-17.8118

>  <SCORE.INTER.CONST>  (1) 
1

>  <SCORE.INTER.POLAR>  (1) 
-2.4373

>  <SCORE.INTER.REPUL>  (1) 
0.0895207

>  <SCORE.INTER.ROT>  (1) 
6

>  <SCORE.INTER.VDW>  (1) 
-21.3726

>  <SCORE.INTER.norm>  (1) 
-0.989544

>  <SCORE.INTRA>  (1) 
0.278029

>  <SCORE.INTRA.DIHEDRAL>  (1) 
1.84951

>  <SCORE.INTRA.DIHEDRAL.0>  (1) 
5.84042

>  <SCORE.INTRA.POLAR>  (1) 
0

>  <SCORE.INTRA.POLAR.0>  (1) 
0

>  <SCORE.INTRA.REPUL>  (1) 
0

>  <SCORE.INTRA.REPUL.0>  (1) 
0

>  <SCORE.INTRA.VDW>  (1) 
-0.646728

>  <SCORE.INTRA.VDW.0>  (1) 
-0.853777

>  <SCORE.INTRA.norm>  (1) 
0.0154461

>  <SCORE.RESTR>  (1) 
0

>  <SCORE.RESTR.CAVITY>  (1) 
0

>  <SCORE.RESTR.norm>  (1) 
0

>  <SCORE.SYSTEM>  (1) 
0

>  <SCORE.SYSTEM.CONST>  (1) 
0

>  <SCORE.SYSTEM.DIHEDRAL>  (1) 
0

>  <SCORE.SYSTEM.norm>  (1) 
0

>  <SCORE.heavy>  (1) 
18

>  <SCORE.norm>  (1) 
-0.974098

>  <TETHERED ATOMS>  (1) 
10,13,11,14,15,12,9,6,5,2,4,7,1,3,8

>  <skeledock_score>  (1) 
115

$$$$
