O=[N+]([O-])c1c(Br)cnn1CCO
     RDKit          3D

 18 18  0  0  0  0  0  0  0  0999 V2000
  -19.6326   10.5230   24.7583 O   0  0  0  0  0  0  0  0  0  0  0  0
  -20.7088   10.8575   25.2934 N   0  0  0  0  0  0  0  0  0  0  0  0
  -21.6703    9.8999   25.5153 O   0  0  0  0  0  0  0  0  0  0  0  0
  -20.8366   12.1493   25.8980 C   0  0  0  0  0  0  0  0  0  0  0  0
  -21.8626   12.5295   26.7379 C   0  0  0  0  0  0  0  0  0  0  0  0
  -23.4293   11.5550   27.2284 Br  0  0  0  0  0  0  0  0  0  0  0  0
  -21.4396   13.7213   27.2850 C   0  0  0  0  0  0  0  0  0  0  0  0
  -20.2306   14.0431   26.7864 N   0  0  0  0  0  0  0  0  0  0  0  0
  -19.8678   13.0941   25.9380 N   0  0  0  0  0  0  0  0  0  0  0  0
  -18.5443   13.0820   25.3111 C   0  0  0  0  0  0  0  0  0  0  0  0
  -17.8606   14.4434   25.3628 C   0  0  0  0  0  0  0  0  0  0  0  0
  -18.6868   15.4127   24.7853 O   0  0  0  0  0  0  0  0  0  0  0  0
  -21.9698   14.3091   28.0223 H   0  0  0  0  0  0  0  0  0  0  0  0
  -17.8993   12.3516   25.8480 H   0  0  0  0  0  0  0  0  0  0  0  0
  -18.6262   12.7230   24.2626 H   0  0  0  0  0  0  0  0  0  0  0  0
  -17.6213   14.7135   26.4162 H   0  0  0  0  0  0  0  0  0  0  0  0
  -16.9088   14.3917   24.7880 H   0  0  0  0  0  0  0  0  0  0  0  0
  -19.5345   15.3950   25.3009 H   0  0  0  0  0  0  0  0  0  0  0  0
  1  2  2  0
  2  3  1  0
  2  4  1  0
  4  5  2  0
  5  6  1  0
  5  7  1  0
  7  8  2  0
  8  9  1  0
  9 10  1  0
 10 11  1  0
 11 12  1  0
  9  4  1  0
  7 13  1  0
 10 14  1  0
 10 15  1  0
 11 16  1  0
 11 17  1  0
 12 18  1  0
M  CHG  2   2   1   3  -1
M  END
>  <CHROM.1>  (1) 
-166.49764569,168.60767437,-55.39557480,58.20951257,-0.39547591,-0.48755809
-2.88902337

>  <Name>  (1) 
O=[N+]([O-])c1c(Br)cnn1CCO

>  <RI>  (1) 
1.10858e+07

>  <Rbt.Current_Directory>  (1) 
/data/out

>  <Rbt.Executable>  (1) 
rbdock ($Id: //depot/dev/client3/rdock/2013.1/src/exe/rbdock.cxx#4 $)

>  <Rbt.Library>  (1) 
libRbt.so (2013.1, Build901 2013/11/27)

>  <Rbt.Parameter_File>  (1) 
/python_libraries/phenodiscovery/docking/templates/RDOCK_TETHER.conf

>  <Rbt.Receptor>  (1) 
/data/out/rdock-opt/grid/rdock-grid.prm

>  <SCORE>  (1) 
-17.7668

>  <SCORE.INTER>  (1) 
3.85725

>  <SCORE.INTER.CONST>  (1) 
1

>  <SCORE.INTER.POLAR>  (1) 
0

>  <SCORE.INTER.REPUL>  (1) 
0

>  <SCORE.INTER.ROT>  (1) 
3

>  <SCORE.INTER.VDW>  (1) 
-4.54275

>  <SCORE.INTER.norm>  (1) 
0.321437

>  <SCORE.INTRA>  (1) 
-21.6241

>  <SCORE.INTRA.DIHEDRAL>  (1) 
-40.3845

>  <SCORE.INTRA.DIHEDRAL.0>  (1) 
45.613

>  <SCORE.INTRA.POLAR>  (1) 
-0.617095

>  <SCORE.INTRA.POLAR.0>  (1) 
0

>  <SCORE.INTRA.REPUL>  (1) 
0

>  <SCORE.INTRA.REPUL.0>  (1) 
0

>  <SCORE.INTRA.VDW>  (1) 
0.666239

>  <SCORE.INTRA.VDW.0>  (1) 
-1.33872

>  <SCORE.INTRA.norm>  (1) 
-1.80201

>  <SCORE.RESTR>  (1) 
7.81345e-05

>  <SCORE.RESTR.CAVITY>  (1) 
7.81345e-05

>  <SCORE.RESTR.norm>  (1) 
6.51121e-06

>  <SCORE.SYSTEM>  (1) 
0

>  <SCORE.SYSTEM.CONST>  (1) 
0

>  <SCORE.SYSTEM.DIHEDRAL>  (1) 
0

>  <SCORE.SYSTEM.norm>  (1) 
0

>  <SCORE.heavy>  (1) 
12

>  <SCORE.norm>  (1) 
-1.48057

>  <TETHERED ATOMS>  (1) 
9,8,11,10,4,12,6,5,7

>  <skeledock_score>  (1) 
65

$$$$
