Cc1cc(F)cc(S(=O)(=O)N(C)CCO)c1
     RDKit          3D

 30 30  0  0  0  0  0  0  0  0999 V2000
  -19.1355   12.6064   26.4757 C   0  0  0  0  0  0  0  0  0  0  0  0
  -20.6324   12.5359   26.5371 C   0  0  0  0  0  0  0  0  0  0  0  0
  -21.3871   12.2740   25.3834 C   0  0  0  0  0  0  0  0  0  0  0  0
  -22.7813   12.2130   25.4553 C   0  0  0  0  0  0  0  0  0  0  0  0
  -23.5041   11.9424   24.3414 F   0  0  0  0  0  0  0  0  0  0  0  0
  -23.4318   12.4300   26.6726 C   0  0  0  0  0  0  0  0  0  0  0  0
  -22.6880   12.6907   27.8319 C   0  0  0  0  0  0  0  0  0  0  0  0
  -23.4996   12.9680   29.3701 S   0  0  0  0  0  0  0  0  0  0  0  0
  -22.7218   12.2836   30.4603 O   0  0  0  0  0  0  0  0  0  0  0  0
  -24.8761   12.3651   29.3128 O   0  0  0  0  0  0  0  0  0  0  0  0
  -23.6214   14.6880   29.6706 N   0  0  0  0  0  0  0  0  0  0  0  0
  -24.2207   14.9648   30.9835 C   0  0  0  0  0  0  0  0  0  0  0  0
  -24.2867   15.4137   28.5670 C   0  0  0  0  0  0  0  0  0  0  0  0
  -25.8242   15.3201   28.5782 C   0  0  0  0  0  0  0  0  0  0  0  0
  -26.3460   15.8938   27.4106 O   0  0  0  0  0  0  0  0  0  0  0  0
  -21.2883   12.7299   27.7615 C   0  0  0  0  0  0  0  0  0  0  0  0
  -18.7957   13.6093   26.8100 H   0  0  0  0  0  0  0  0  0  0  0  0
  -18.7604   12.4336   25.4445 H   0  0  0  0  0  0  0  0  0  0  0  0
  -18.6981   11.8343   27.1432 H   0  0  0  0  0  0  0  0  0  0  0  0
  -20.8980   12.1123   24.4307 H   0  0  0  0  0  0  0  0  0  0  0  0
  -24.5128   12.3929   26.7083 H   0  0  0  0  0  0  0  0  0  0  0  0
  -25.1666   14.4016   31.1303 H   0  0  0  0  0  0  0  0  0  0  0  0
  -23.5056   14.6850   31.7831 H   0  0  0  0  0  0  0  0  0  0  0  0
  -24.4248   16.0508   31.1007 H   0  0  0  0  0  0  0  0  0  0  0  0
  -23.9940   16.4857   28.6099 H   0  0  0  0  0  0  0  0  0  0  0  0
  -23.9044   15.0336   27.5955 H   0  0  0  0  0  0  0  0  0  0  0  0
  -26.1593   14.2632   28.6566 H   0  0  0  0  0  0  0  0  0  0  0  0
  -26.2350   15.8780   29.4441 H   0  0  0  0  0  0  0  0  0  0  0  0
  -26.0507   16.8419   27.4025 H   0  0  0  0  0  0  0  0  0  0  0  0
  -20.7071   12.9120   28.6571 H   0  0  0  0  0  0  0  0  0  0  0  0
  1  2  1  0
  2  3  2  0
  3  4  1  0
  4  5  1  0
  4  6  2  0
  6  7  1  0
  7  8  1  0
  8  9  2  0
  8 10  2  0
  8 11  1  0
 11 12  1  0
 11 13  1  0
 13 14  1  0
 14 15  1  0
  7 16  2  0
 16  2  1  0
  1 17  1  0
  1 18  1  0
  1 19  1  0
  3 20  1  0
  6 21  1  0
 12 22  1  0
 12 23  1  0
 12 24  1  0
 13 25  1  0
 13 26  1  0
 14 27  1  0
 14 28  1  0
 15 29  1  0
 16 30  1  0
M  END
>  <CHROM.1>  (1) 
140.06139501,-176.57268153,79.81249718,-172.67994722,-59.82779631,1.97766879
0.05021598,1.36770718

>  <Name>  (1) 
Cc1cc(F)cc(S(=O)(=O)N(C)CCO)c1

>  <RI>  (1) 
1.99016e+07

>  <Rbt.Current_Directory>  (1) 
/data/out

>  <Rbt.Executable>  (1) 
rbdock ($Id: //depot/dev/client3/rdock/2013.1/src/exe/rbdock.cxx#4 $)

>  <Rbt.Library>  (1) 
libRbt.so (2013.1, Build901 2013/11/27)

>  <Rbt.Parameter_File>  (1) 
/python_libraries/phenodiscovery/docking/templates/RDOCK_TETHER.conf

>  <Rbt.Receptor>  (1) 
/data/out/rdock-opt/grid/rdock-grid.prm

>  <SCORE>  (1) 
-15.7183

>  <SCORE.INTER>  (1) 
-15.3051

>  <SCORE.INTER.CONST>  (1) 
1

>  <SCORE.INTER.POLAR>  (1) 
-1.73268

>  <SCORE.INTER.REPUL>  (1) 
0

>  <SCORE.INTER.ROT>  (1) 
4

>  <SCORE.INTER.VDW>  (1) 
-18.814

>  <SCORE.INTER.norm>  (1) 
-0.956569

>  <SCORE.INTRA>  (1) 
-0.413228

>  <SCORE.INTRA.DIHEDRAL>  (1) 
-0.899583

>  <SCORE.INTRA.DIHEDRAL.0>  (1) 
2.82837

>  <SCORE.INTRA.POLAR>  (1) 
0

>  <SCORE.INTRA.POLAR.0>  (1) 
0

>  <SCORE.INTRA.REPUL>  (1) 
0

>  <SCORE.INTRA.REPUL.0>  (1) 
0

>  <SCORE.INTRA.VDW>  (1) 
0.0365634

>  <SCORE.INTRA.VDW.0>  (1) 
-1.67059

>  <SCORE.INTRA.norm>  (1) 
-0.0258268

>  <SCORE.RESTR>  (1) 
0

>  <SCORE.RESTR.CAVITY>  (1) 
0

>  <SCORE.RESTR.norm>  (1) 
0

>  <SCORE.SYSTEM>  (1) 
0

>  <SCORE.SYSTEM.CONST>  (1) 
0

>  <SCORE.SYSTEM.DIHEDRAL>  (1) 
0

>  <SCORE.SYSTEM.norm>  (1) 
0

>  <SCORE.heavy>  (1) 
16

>  <SCORE.norm>  (1) 
-0.982395

>  <TETHERED ATOMS>  (1) 
8,9,10,11,7,3,2,6,16,1,5,4

>  <skeledock_score>  (1) 
91

$$$$
