NC(=O)NCCC(=O)Nc1ccc(Cc2ccncc2)cc1
     RDKit          3D

 40 41  0  0  0  0  0  0  0  0999 V2000
  -10.9130   19.1099   27.1509 N   0  0  0  0  0  0  0  0  0  0  0  0
  -12.1231   19.6885   27.6374 C   0  0  0  0  0  0  0  0  0  0  0  0
  -12.0831   20.7856   28.2571 O   0  0  0  0  0  0  0  0  0  0  0  0
  -13.3737   19.0241   27.4212 N   0  0  0  0  0  0  0  0  0  0  0  0
  -14.6327   19.5896   27.9058 C   0  0  0  0  0  0  0  0  0  0  0  0
  -15.7638   19.3419   26.9031 C   0  0  0  0  0  0  0  0  0  0  0  0
  -16.1791   17.8995   26.9049 C   0  0  0  0  0  0  0  0  0  0  0  0
  -15.6509   17.1109   27.7353 O   0  0  0  0  0  0  0  0  0  0  0  0
  -17.1621   17.4246   25.9683 N   0  0  0  0  0  0  0  0  0  0  0  0
  -17.8287   16.1540   26.0802 C   0  0  0  0  0  0  0  0  0  0  0  0
  -18.3289   15.5309   24.9263 C   0  0  0  0  0  0  0  0  0  0  0  0
  -18.9292   14.2700   25.0055 C   0  0  0  0  0  0  0  0  0  0  0  0
  -19.0383   13.6144   26.2418 C   0  0  0  0  0  0  0  0  0  0  0  0
  -19.6079   12.2234   26.3186 C   0  0  0  0  0  0  0  0  0  0  0  0
  -21.0978   12.2323   26.1091 C   0  0  0  0  0  0  0  0  0  0  0  0
  -21.9515   12.7377   27.1014 C   0  0  0  0  0  0  0  0  0  0  0  0
  -23.3341   12.6994   26.9047 C   0  0  0  0  0  0  0  0  0  0  0  0
  -23.8460   12.1777   25.7585 N   0  0  0  0  0  0  0  0  0  0  0  0
  -23.0422   11.6857   24.7786 C   0  0  0  0  0  0  0  0  0  0  0  0
  -21.6542   11.7040   24.9347 C   0  0  0  0  0  0  0  0  0  0  0  0
  -18.6067   14.2678   27.4051 C   0  0  0  0  0  0  0  0  0  0  0  0
  -18.0165   15.5310   27.3272 C   0  0  0  0  0  0  0  0  0  0  0  0
   -9.9989   19.5902   27.3058 H   0  0  0  0  0  0  0  0  0  0  0  0
  -10.9280   18.2020   26.6358 H   0  0  0  0  0  0  0  0  0  0  0  0
  -13.3723   18.1159   26.9030 H   0  0  0  0  0  0  0  0  0  0  0  0
  -14.8936   19.1179   28.8787 H   0  0  0  0  0  0  0  0  0  0  0  0
  -14.5030   20.6830   28.0611 H   0  0  0  0  0  0  0  0  0  0  0  0
  -15.4286   19.6416   25.8866 H   0  0  0  0  0  0  0  0  0  0  0  0
  -16.6422   19.9661   27.1748 H   0  0  0  0  0  0  0  0  0  0  0  0
  -17.3527   18.0062   25.1211 H   0  0  0  0  0  0  0  0  0  0  0  0
  -18.2234   16.0089   23.9605 H   0  0  0  0  0  0  0  0  0  0  0  0
  -19.2823   13.7921   24.0999 H   0  0  0  0  0  0  0  0  0  0  0  0
  -19.3761   11.7615   27.3034 H   0  0  0  0  0  0  0  0  0  0  0  0
  -19.1116   11.5828   25.5565 H   0  0  0  0  0  0  0  0  0  0  0  0
  -21.5518   13.1448   28.0216 H   0  0  0  0  0  0  0  0  0  0  0  0
  -24.0007   13.0823   27.6658 H   0  0  0  0  0  0  0  0  0  0  0  0
  -23.4811   11.2780   23.8779 H   0  0  0  0  0  0  0  0  0  0  0  0
  -21.0223   11.3065   24.1503 H   0  0  0  0  0  0  0  0  0  0  0  0
  -18.7128   13.7924   28.3723 H   0  0  0  0  0  0  0  0  0  0  0  0
  -17.7122   16.0169   28.2441 H   0  0  0  0  0  0  0  0  0  0  0  0
  1  2  1  0
  2  3  2  0
  2  4  1  0
  4  5  1  0
  5  6  1  0
  6  7  1  0
  7  8  2  0
  7  9  1  0
  9 10  1  0
 10 11  2  0
 11 12  1  0
 12 13  2  0
 13 14  1  0
 14 15  1  0
 15 16  2  0
 16 17  1  0
 17 18  2  0
 18 19  1  0
 19 20  2  0
 13 21  1  0
 21 22  2  0
 22 10  1  0
 20 15  1  0
  1 23  1  0
  1 24  1  0
  4 25  1  0
  5 26  1  0
  5 27  1  0
  6 28  1  0
  6 29  1  0
  9 30  1  0
 11 31  1  0
 12 32  1  0
 14 33  1  0
 14 34  1  0
 16 35  1  0
 17 36  1  0
 19 37  1  0
 20 38  1  0
 21 39  1  0
 22 40  1  0
M  END
>  <CHROM.1>  (1) 
142.52676891,72.60006094,4.25100167,-154.24938881,-73.25020188,-71.89740586
-2.82151768,0.66629435,1.30144082

>  <Name>  (1) 
NC(=O)NCCC(=O)Nc1ccc(Cc2ccncc2)cc1

>  <RI>  (1) 
3.03306e+07

>  <Rbt.Current_Directory>  (1) 
/data/out

>  <Rbt.Executable>  (1) 
rbdock ($Id: //depot/dev/client3/rdock/2013.1/src/exe/rbdock.cxx#4 $)

>  <Rbt.Library>  (1) 
libRbt.so (2013.1, Build901 2013/11/27)

>  <Rbt.Parameter_File>  (1) 
/python_libraries/phenodiscovery/docking/templates/RDOCK_TETHER.conf

>  <Rbt.Receptor>  (1) 
/data/out/rdock-opt/grid/rdock-grid.prm

>  <SCORE>  (1) 
-15.3925

>  <SCORE.INTER>  (1) 
-16.0095

>  <SCORE.INTER.CONST>  (1) 
1

>  <SCORE.INTER.POLAR>  (1) 
-2.46164

>  <SCORE.INTER.REPUL>  (1) 
1.1223

>  <SCORE.INTER.ROT>  (1) 
6

>  <SCORE.INTER.VDW>  (1) 
-24.6514

>  <SCORE.INTER.norm>  (1) 
-0.727706

>  <SCORE.INTRA>  (1) 
0.617049

>  <SCORE.INTRA.DIHEDRAL>  (1) 
-1.79632

>  <SCORE.INTRA.DIHEDRAL.0>  (1) 
8.22462

>  <SCORE.INTRA.POLAR>  (1) 
0

>  <SCORE.INTRA.POLAR.0>  (1) 
0

>  <SCORE.INTRA.REPUL>  (1) 
0

>  <SCORE.INTRA.REPUL.0>  (1) 
0

>  <SCORE.INTRA.VDW>  (1) 
1.51521

>  <SCORE.INTRA.VDW.0>  (1) 
-1.49114

>  <SCORE.INTRA.norm>  (1) 
0.0280477

>  <SCORE.RESTR>  (1) 
0

>  <SCORE.RESTR.CAVITY>  (1) 
0

>  <SCORE.RESTR.norm>  (1) 
0

>  <SCORE.SYSTEM>  (1) 
0

>  <SCORE.SYSTEM.CONST>  (1) 
0

>  <SCORE.SYSTEM.DIHEDRAL>  (1) 
0

>  <SCORE.SYSTEM.norm>  (1) 
0

>  <SCORE.heavy>  (1) 
22

>  <SCORE.norm>  (1) 
-0.699658

>  <TETHERED ATOMS>  (1) 
14,10,18,7,9,13,15,8,5,22,12,11,21,20,16,19,17

>  <skeledock_score>  (1) 
126

$$$$
