Cc1nc2ccccc2n1CCC(=O)NC[C@@H](C)O
     RDKit          3D

 38 39  0  0  0  0  0  0  0  0999 V2000
  -18.1994   13.0909   23.5587 C   0  0  0  0  0  0  0  0  0  0  0  0
  -19.3184   12.8637   24.5260 C   0  0  0  0  0  0  0  0  0  0  0  0
  -20.4558   12.2048   24.1831 N   0  0  0  0  0  0  0  0  0  0  0  0
  -21.1812   12.2434   25.3154 C   0  0  0  0  0  0  0  0  0  0  0  0
  -22.4537   11.7167   25.5222 C   0  0  0  0  0  0  0  0  0  0  0  0
  -23.0356   11.8907   26.7914 C   0  0  0  0  0  0  0  0  0  0  0  0
  -22.3392   12.5808   27.8098 C   0  0  0  0  0  0  0  0  0  0  0  0
  -21.0528   13.1007   27.5693 C   0  0  0  0  0  0  0  0  0  0  0  0
  -20.5036   12.9051   26.2998 C   0  0  0  0  0  0  0  0  0  0  0  0
  -19.3105   13.2943   25.8167 N   0  0  0  0  0  0  0  0  0  0  0  0
  -18.2607   14.0590   26.4942 C   0  0  0  0  0  0  0  0  0  0  0  0
  -18.5671   15.5595   26.4384 C   0  0  0  0  0  0  0  0  0  0  0  0
  -17.3363   16.3684   26.7290 C   0  0  0  0  0  0  0  0  0  0  0  0
  -16.8735   16.3942   27.9019 O   0  0  0  0  0  0  0  0  0  0  0  0
  -16.6978   17.1140   25.6831 N   0  0  0  0  0  0  0  0  0  0  0  0
  -15.4996   17.9217   25.9093 C   0  0  0  0  0  0  0  0  0  0  0  0
  -15.2268   18.8618   24.7214 C   0  0  0  0  0  0  0  0  0  0  0  0
  -14.1975   19.9332   25.0860 C   0  0  0  0  0  0  0  0  0  0  0  0
  -14.7388   18.1185   23.6355 O   0  0  0  0  0  0  0  0  0  0  0  0
  -17.2785   12.5935   23.9274 H   0  0  0  0  0  0  0  0  0  0  0  0
  -18.0132   14.1789   23.4467 H   0  0  0  0  0  0  0  0  0  0  0  0
  -18.4588   12.6683   22.5653 H   0  0  0  0  0  0  0  0  0  0  0  0
  -22.9796   11.1951   24.7331 H   0  0  0  0  0  0  0  0  0  0  0  0
  -24.0239   11.4961   26.9880 H   0  0  0  0  0  0  0  0  0  0  0  0
  -22.7981   12.7116   28.7811 H   0  0  0  0  0  0  0  0  0  0  0  0
  -20.5180   13.6334   28.3441 H   0  0  0  0  0  0  0  0  0  0  0  0
  -18.1715   13.7269   27.5504 H   0  0  0  0  0  0  0  0  0  0  0  0
  -17.2829   13.8499   26.0078 H   0  0  0  0  0  0  0  0  0  0  0  0
  -19.3557   15.8073   27.1809 H   0  0  0  0  0  0  0  0  0  0  0  0
  -18.9513   15.8268   25.4297 H   0  0  0  0  0  0  0  0  0  0  0  0
  -17.1187   17.1122   24.7269 H   0  0  0  0  0  0  0  0  0  0  0  0
  -15.6322   18.5251   26.8342 H   0  0  0  0  0  0  0  0  0  0  0  0
  -14.6279   17.2515   26.0735 H   0  0  0  0  0  0  0  0  0  0  0  0
  -16.1696   19.3772   24.4256 H   0  0  0  0  0  0  0  0  0  0  0  0
  -14.5796   20.5778   25.9058 H   0  0  0  0  0  0  0  0  0  0  0  0
  -13.9981   20.5770   24.2031 H   0  0  0  0  0  0  0  0  0  0  0  0
  -13.2430   19.4634   25.4064 H   0  0  0  0  0  0  0  0  0  0  0  0
  -13.9895   17.5653   23.9800 H   0  0  0  0  0  0  0  0  0  0  0  0
  1  2  1  0
  2  3  2  0
  3  4  1  0
  4  5  2  0
  5  6  1  0
  6  7  2  0
  7  8  1  0
  8  9  2  0
  9 10  1  0
 10 11  1  0
 11 12  1  0
 12 13  1  0
 13 14  2  0
 13 15  1  0
 15 16  1  0
 16 17  1  0
 17 18  1  0
 17 19  1  0
 10  2  1  0
  9  4  1  0
  1 20  1  0
  1 21  1  0
  1 22  1  0
  5 23  1  0
  6 24  1  0
  7 25  1  0
  8 26  1  0
 11 27  1  0
 11 28  1  0
 12 29  1  0
 12 30  1  0
 15 31  1  0
 16 32  1  0
 16 33  1  0
 17 34  1  0
 18 35  1  0
 18 36  1  0
 18 37  1  0
 19 38  1  0
M  END
>  <CHROM.1>  (1) 
94.68583147,-162.26127821,-71.16636668,-166.56476023,166.16779965,-50.71604089
-2.73106165,0.61607451,1.05118040

>  <Name>  (1) 
Cc1nc2ccccc2n1CCC(=O)NC[C@@H](C)O

>  <RI>  (1) 
3.09557e+07

>  <Rbt.Current_Directory>  (1) 
/data/out

>  <Rbt.Executable>  (1) 
rbdock ($Id: //depot/dev/client3/rdock/2013.1/src/exe/rbdock.cxx#4 $)

>  <Rbt.Library>  (1) 
libRbt.so (2013.1, Build901 2013/11/27)

>  <Rbt.Parameter_File>  (1) 
/python_libraries/phenodiscovery/docking/templates/RDOCK_TETHER.conf

>  <Rbt.Receptor>  (1) 
/data/out/rdock-opt/grid/rdock-grid.prm

>  <SCORE>  (1) 
-16.8161

>  <SCORE.INTER>  (1) 
-18.091

>  <SCORE.INTER.CONST>  (1) 
1

>  <SCORE.INTER.POLAR>  (1) 
-2.26358

>  <SCORE.INTER.REPUL>  (1) 
0.0668056

>  <SCORE.INTER.ROT>  (1) 
5

>  <SCORE.INTER.VDW>  (1) 
-21.1288

>  <SCORE.INTER.norm>  (1) 
-0.952157

>  <SCORE.INTRA>  (1) 
1.27493

>  <SCORE.INTRA.DIHEDRAL>  (1) 
1.19568

>  <SCORE.INTRA.DIHEDRAL.0>  (1) 
7.39982

>  <SCORE.INTRA.POLAR>  (1) 
0

>  <SCORE.INTRA.POLAR.0>  (1) 
0

>  <SCORE.INTRA.REPUL>  (1) 
0

>  <SCORE.INTRA.REPUL.0>  (1) 
0

>  <SCORE.INTRA.VDW>  (1) 
0.677088

>  <SCORE.INTRA.VDW.0>  (1) 
-2.12152

>  <SCORE.INTRA.norm>  (1) 
0.0671016

>  <SCORE.RESTR>  (1) 
0

>  <SCORE.RESTR.CAVITY>  (1) 
0

>  <SCORE.RESTR.norm>  (1) 
0

>  <SCORE.SYSTEM>  (1) 
0

>  <SCORE.SYSTEM.CONST>  (1) 
0

>  <SCORE.SYSTEM.DIHEDRAL>  (1) 
0

>  <SCORE.SYSTEM.norm>  (1) 
0

>  <SCORE.heavy>  (1) 
19

>  <SCORE.norm>  (1) 
-0.885055

>  <TETHERED ATOMS>  (1) 
10,13,11,14,15,12,9,6,5,2,4,7,1,3,8

>  <skeledock_score>  (1) 
115

$$$$
