CSCC(C)NC(=O)CCn1c(C)nc2ccccc21
     RDKit          3D

 41 42  0  0  0  0  0  0  0  0999 V2000
  -14.4276   20.5031   24.0748 C   0  0  0  0  0  0  0  0  0  0  0  0
  -14.9371   18.7568   24.1780 S   0  0  0  0  0  0  0  0  0  0  0  0
  -15.1518   18.7178   26.0010 C   0  0  0  0  0  0  0  0  0  0  0  0
  -16.6302   18.7046   26.4287 C   0  0  0  0  0  0  0  0  0  0  0  0
  -17.3667   19.9811   26.0139 C   0  0  0  0  0  0  0  0  0  0  0  0
  -17.3142   17.5303   25.8764 N   0  0  0  0  0  0  0  0  0  0  0  0
  -18.4750   16.9429   26.4793 C   0  0  0  0  0  0  0  0  0  0  0  0
  -18.9540   17.4162   27.5462 O   0  0  0  0  0  0  0  0  0  0  0  0
  -19.1174   15.7432   25.8520 C   0  0  0  0  0  0  0  0  0  0  0  0
  -18.2538   14.5067   26.0583 C   0  0  0  0  0  0  0  0  0  0  0  0
  -18.9752   13.2733   25.7201 N   0  0  0  0  0  0  0  0  0  0  0  0
  -18.9708   12.6142   24.5250 C   0  0  0  0  0  0  0  0  0  0  0  0
  -17.9992   12.8663   23.4135 C   0  0  0  0  0  0  0  0  0  0  0  0
  -19.9589   11.6900   24.4130 N   0  0  0  0  0  0  0  0  0  0  0  0
  -20.6060   11.7917   25.5859 C   0  0  0  0  0  0  0  0  0  0  0  0
  -21.7691   11.1268   25.9654 C   0  0  0  0  0  0  0  0  0  0  0  0
  -22.3189   11.4334   27.2229 C   0  0  0  0  0  0  0  0  0  0  0  0
  -21.6957   12.3821   28.0632 C   0  0  0  0  0  0  0  0  0  0  0  0
  -20.5294   13.0486   27.6447 C   0  0  0  0  0  0  0  0  0  0  0  0
  -20.0144   12.7297   26.3830 C   0  0  0  0  0  0  0  0  0  0  0  0
  -15.2126   21.1606   24.5011 H   0  0  0  0  0  0  0  0  0  0  0  0
  -14.2748   20.7724   23.0097 H   0  0  0  0  0  0  0  0  0  0  0  0
  -13.4739   20.6528   24.6223 H   0  0  0  0  0  0  0  0  0  0  0  0
  -14.6713   17.7879   26.3729 H   0  0  0  0  0  0  0  0  0  0  0  0
  -14.6277   19.5650   26.4933 H   0  0  0  0  0  0  0  0  0  0  0  0
  -16.6457   18.6696   27.5400 H   0  0  0  0  0  0  0  0  0  0  0  0
  -16.8472   20.8746   26.4209 H   0  0  0  0  0  0  0  0  0  0  0  0
  -17.4259   20.0657   24.9084 H   0  0  0  0  0  0  0  0  0  0  0  0
  -18.4007   19.9634   26.4193 H   0  0  0  0  0  0  0  0  0  0  0  0
  -16.9307   17.0943   25.0073 H   0  0  0  0  0  0  0  0  0  0  0  0
  -20.1174   15.6070   26.3083 H   0  0  0  0  0  0  0  0  0  0  0  0
  -19.2674   15.9087   24.7634 H   0  0  0  0  0  0  0  0  0  0  0  0
  -17.9227   14.4486   27.1183 H   0  0  0  0  0  0  0  0  0  0  0  0
  -17.3348   14.6078   25.4449 H   0  0  0  0  0  0  0  0  0  0  0  0
  -17.0541   12.3211   23.6145 H   0  0  0  0  0  0  0  0  0  0  0  0
  -18.4203   12.4999   22.4538 H   0  0  0  0  0  0  0  0  0  0  0  0
  -17.7937   13.9512   23.3085 H   0  0  0  0  0  0  0  0  0  0  0  0
  -22.2404   10.4045   25.3114 H   0  0  0  0  0  0  0  0  0  0  0  0
  -23.2221   10.9353   27.5506 H   0  0  0  0  0  0  0  0  0  0  0  0
  -22.1241   12.6057   29.0316 H   0  0  0  0  0  0  0  0  0  0  0  0
  -20.0629   13.7816   28.2876 H   0  0  0  0  0  0  0  0  0  0  0  0
  1  2  1  0
  2  3  1  0
  3  4  1  0
  4  5  1  0
  4  6  1  0
  6  7  1  0
  7  8  2  0
  7  9  1  0
  9 10  1  0
 10 11  1  0
 11 12  1  0
 12 13  1  0
 12 14  2  0
 14 15  1  0
 15 16  2  0
 16 17  1  0
 17 18  2  0
 18 19  1  0
 19 20  2  0
 20 11  1  0
 20 15  1  0
  1 21  1  0
  1 22  1  0
  1 23  1  0
  3 24  1  0
  3 25  1  0
  4 26  1  0
  5 27  1  0
  5 28  1  0
  5 29  1  0
  6 30  1  0
  9 31  1  0
  9 32  1  0
 10 33  1  0
 10 34  1  0
 13 35  1  0
 13 36  1  0
 13 37  1  0
 16 38  1  0
 17 39  1  0
 18 40  1  0
 19 41  1  0
M  END
>  <CHROM.1>  (1) 
105.84753358,-63.68727777,154.28816226,72.47719915,167.63386853,93.87038783
-2.31485819,0.78967462,0.62709834

>  <Name>  (1) 
CSCC(C)NC(=O)CCn1c(C)nc2ccccc21

>  <RI>  (1) 
2.77936e+07

>  <Rbt.Current_Directory>  (1) 
/data/out

>  <Rbt.Executable>  (1) 
rbdock ($Id: //depot/dev/client3/rdock/2013.1/src/exe/rbdock.cxx#4 $)

>  <Rbt.Library>  (1) 
libRbt.so (2013.1, Build901 2013/11/27)

>  <Rbt.Parameter_File>  (1) 
/python_libraries/phenodiscovery/docking/templates/RDOCK_TETHER.conf

>  <Rbt.Receptor>  (1) 
/data/out/rdock-opt/grid/rdock-grid.prm

>  <SCORE>  (1) 
-17.2916

>  <SCORE.INTER>  (1) 
-15.9797

>  <SCORE.INTER.CONST>  (1) 
1

>  <SCORE.INTER.POLAR>  (1) 
-0.723432

>  <SCORE.INTER.REPUL>  (1) 
0

>  <SCORE.INTER.ROT>  (1) 
6

>  <SCORE.INTER.VDW>  (1) 
-24.92

>  <SCORE.INTER.norm>  (1) 
-0.798986

>  <SCORE.INTRA>  (1) 
-1.31194

>  <SCORE.INTRA.DIHEDRAL>  (1) 
0.232628

>  <SCORE.INTRA.DIHEDRAL.0>  (1) 
7.99841

>  <SCORE.INTRA.POLAR>  (1) 
0

>  <SCORE.INTRA.POLAR.0>  (1) 
0

>  <SCORE.INTRA.REPUL>  (1) 
0

>  <SCORE.INTRA.REPUL.0>  (1) 
0

>  <SCORE.INTRA.VDW>  (1) 
-1.42825

>  <SCORE.INTRA.VDW.0>  (1) 
-0.67555

>  <SCORE.INTRA.norm>  (1) 
-0.0655968

>  <SCORE.RESTR>  (1) 
0

>  <SCORE.RESTR.CAVITY>  (1) 
0

>  <SCORE.RESTR.norm>  (1) 
0

>  <SCORE.SYSTEM>  (1) 
0

>  <SCORE.SYSTEM.CONST>  (1) 
0

>  <SCORE.SYSTEM.DIHEDRAL>  (1) 
0

>  <SCORE.SYSTEM.norm>  (1) 
0

>  <SCORE.heavy>  (1) 
20

>  <SCORE.norm>  (1) 
-0.864582

>  <TETHERED ATOMS>  (1) 
11,6,10,8,7,9,20,17,19,13,14,15,18,16,12

>  <skeledock_score>  (1) 
115

$$$$
