NC(=O)NCC(=O)Nc1ccc(Cc2ccncc2)cc1
     RDKit          3D

 37 38  0  0  0  0  0  0  0  0999 V2000
  -11.4631   19.5491   27.3244 N   0  0  0  0  0  0  0  0  0  0  0  0
  -12.8787   19.7252   27.3489 C   0  0  0  0  0  0  0  0  0  0  0  0
  -13.3680   20.7591   27.8789 O   0  0  0  0  0  0  0  0  0  0  0  0
  -13.7356   18.7300   26.7732 N   0  0  0  0  0  0  0  0  0  0  0  0
  -15.1941   18.8425   26.7946 C   0  0  0  0  0  0  0  0  0  0  0  0
  -15.8559   17.4944   26.8662 C   0  0  0  0  0  0  0  0  0  0  0  0
  -15.5364   16.6781   27.7739 O   0  0  0  0  0  0  0  0  0  0  0  0
  -16.8398   17.1435   25.8792 N   0  0  0  0  0  0  0  0  0  0  0  0
  -17.6327   15.9440   25.9149 C   0  0  0  0  0  0  0  0  0  0  0  0
  -18.1922   15.4536   24.7254 C   0  0  0  0  0  0  0  0  0  0  0  0
  -18.9291   14.2657   24.7257 C   0  0  0  0  0  0  0  0  0  0  0  0
  -19.1208   13.5523   25.9187 C   0  0  0  0  0  0  0  0  0  0  0  0
  -19.8519   12.2369   25.9069 C   0  0  0  0  0  0  0  0  0  0  0  0
  -21.3250   12.4324   26.1422 C   0  0  0  0  0  0  0  0  0  0  0  0
  -21.7838   12.9750   27.3518 C   0  0  0  0  0  0  0  0  0  0  0  0
  -23.1574   13.1122   27.5674 C   0  0  0  0  0  0  0  0  0  0  0  0
  -24.0405   12.7253   26.6090 N   0  0  0  0  0  0  0  0  0  0  0  0
  -23.6236   12.2023   25.4255 C   0  0  0  0  0  0  0  0  0  0  0  0
  -22.2592   12.0462   25.1694 C   0  0  0  0  0  0  0  0  0  0  0  0
  -18.6230   14.0778   27.1204 C   0  0  0  0  0  0  0  0  0  0  0  0
  -17.8906   15.2680   27.1207 C   0  0  0  0  0  0  0  0  0  0  0  0
  -10.8343   20.2702   27.7422 H   0  0  0  0  0  0  0  0  0  0  0  0
  -11.0412   18.6996   26.8881 H   0  0  0  0  0  0  0  0  0  0  0  0
  -13.3079   17.8601   26.3830 H   0  0  0  0  0  0  0  0  0  0  0  0
  -15.5039   19.4331   27.6830 H   0  0  0  0  0  0  0  0  0  0  0  0
  -15.5395   19.3825   25.8869 H   0  0  0  0  0  0  0  0  0  0  0  0
  -16.9102   17.7509   25.0312 H   0  0  0  0  0  0  0  0  0  0  0  0
  -18.0308   15.9774   23.7915 H   0  0  0  0  0  0  0  0  0  0  0  0
  -19.3293   13.8885   23.7925 H   0  0  0  0  0  0  0  0  0  0  0  0
  -19.4407   11.5540   26.6824 H   0  0  0  0  0  0  0  0  0  0  0  0
  -19.6775   11.7319   24.9311 H   0  0  0  0  0  0  0  0  0  0  0  0
  -21.0865   13.2774   28.1230 H   0  0  0  0  0  0  0  0  0  0  0  0
  -23.5213   13.5250   28.4988 H   0  0  0  0  0  0  0  0  0  0  0  0
  -24.3519   11.9050   24.6829 H   0  0  0  0  0  0  0  0  0  0  0  0
  -21.9366   11.6253   24.2252 H   0  0  0  0  0  0  0  0  0  0  0  0
  -18.7897   13.5588   28.0562 H   0  0  0  0  0  0  0  0  0  0  0  0
  -17.5356   15.6592   28.0643 H   0  0  0  0  0  0  0  0  0  0  0  0
  1  2  1  0
  2  3  2  0
  2  4  1  0
  4  5  1  0
  5  6  1  0
  6  7  2  0
  6  8  1  0
  8  9  1  0
  9 10  2  0
 10 11  1  0
 11 12  2  0
 12 13  1  0
 13 14  1  0
 14 15  2  0
 15 16  1  0
 16 17  2  0
 17 18  1  0
 18 19  2  0
 12 20  1  0
 20 21  2  0
 21  9  1  0
 19 14  1  0
  1 22  1  0
  1 23  1  0
  4 24  1  0
  5 25  1  0
  5 26  1  0
  8 27  1  0
 10 28  1  0
 11 29  1  0
 13 30  1  0
 13 31  1  0
 15 32  1  0
 16 33  1  0
 18 34  1  0
 19 35  1  0
 20 36  1  0
 21 37  1  0
M  END
>  <CHROM.1>  (1) 
-148.37295150,53.45445449,-157.33141286,-91.33143341,-62.76134969,-2.92334394
0.53781140,1.25036373

>  <Name>  (1) 
NC(=O)NCC(=O)Nc1ccc(Cc2ccncc2)cc1

>  <RI>  (1) 
9.83835e+06

>  <Rbt.Current_Directory>  (1) 
/data/out

>  <Rbt.Executable>  (1) 
rbdock ($Id: //depot/dev/client3/rdock/2013.1/src/exe/rbdock.cxx#4 $)

>  <Rbt.Library>  (1) 
libRbt.so (2013.1, Build901 2013/11/27)

>  <Rbt.Parameter_File>  (1) 
/python_libraries/phenodiscovery/docking/templates/RDOCK_TETHER.conf

>  <Rbt.Receptor>  (1) 
/data/out/rdock-opt/grid/rdock-grid.prm

>  <SCORE>  (1) 
-16.3007

>  <SCORE.INTER>  (1) 
-18.2932

>  <SCORE.INTER.CONST>  (1) 
1

>  <SCORE.INTER.POLAR>  (1) 
-2.65734

>  <SCORE.INTER.REPUL>  (1) 
0.821684

>  <SCORE.INTER.ROT>  (1) 
5

>  <SCORE.INTER.VDW>  (1) 
-23.7666

>  <SCORE.INTER.norm>  (1) 
-0.871104

>  <SCORE.INTRA>  (1) 
1.99249

>  <SCORE.INTRA.DIHEDRAL>  (1) 
-1.73455

>  <SCORE.INTRA.DIHEDRAL.0>  (1) 
7.40521

>  <SCORE.INTRA.POLAR>  (1) 
0

>  <SCORE.INTRA.POLAR.0>  (1) 
0

>  <SCORE.INTRA.REPUL>  (1) 
0

>  <SCORE.INTRA.REPUL.0>  (1) 
0

>  <SCORE.INTRA.VDW>  (1) 
2.85977

>  <SCORE.INTRA.VDW.0>  (1) 
-1.95195

>  <SCORE.INTRA.norm>  (1) 
0.0948804

>  <SCORE.RESTR>  (1) 
0

>  <SCORE.RESTR.CAVITY>  (1) 
0

>  <SCORE.RESTR.norm>  (1) 
0

>  <SCORE.SYSTEM>  (1) 
0

>  <SCORE.SYSTEM.CONST>  (1) 
0

>  <SCORE.SYSTEM.DIHEDRAL>  (1) 
0

>  <SCORE.SYSTEM.norm>  (1) 
0

>  <SCORE.heavy>  (1) 
21

>  <SCORE.norm>  (1) 
-0.776224

>  <TETHERED ATOMS>  (1) 
13,17,12,14,8,9,6,7,21,20,11,10,16,15,19,18

>  <skeledock_score>  (1) 
121

$$$$
