COC[C@@H](O)CN1CCN(c2ccc(F)cc2)CC1
     RDKit          3D

 40 41  0  0  0  0  0  0  0  0999 V2000
  -12.5715   19.2789   27.2101 C   0  0  0  0  0  0  0  0  0  0  0  0
  -13.1144   17.9831   27.0916 O   0  0  0  0  0  0  0  0  0  0  0  0
  -14.5201   18.0427   26.9228 C   0  0  0  0  0  0  0  0  0  0  0  0
  -15.0913   16.6217   26.8449 C   0  0  0  0  0  0  0  0  0  0  0  0
  -14.7520   15.9270   28.0175 O   0  0  0  0  0  0  0  0  0  0  0  0
  -16.6189   16.6567   26.6751 C   0  0  0  0  0  0  0  0  0  0  0  0
  -17.1133   15.3097   26.2999 N   0  0  0  0  0  0  0  0  0  0  0  0
  -17.6232   14.5845   27.4847 C   0  0  0  0  0  0  0  0  0  0  0  0
  -18.0498   13.1667   27.1079 C   0  0  0  0  0  0  0  0  0  0  0  0
  -18.9929   13.2260   25.9900 N   0  0  0  0  0  0  0  0  0  0  0  0
  -20.2980   12.6266   26.0692 C   0  0  0  0  0  0  0  0  0  0  0  0
  -20.8307   11.9456   24.9619 C   0  0  0  0  0  0  0  0  0  0  0  0
  -22.1265   11.4240   25.0114 C   0  0  0  0  0  0  0  0  0  0  0  0
  -22.9012   11.5821   26.1639 C   0  0  0  0  0  0  0  0  0  0  0  0
  -24.1710   11.1090   26.1964 F   0  0  0  0  0  0  0  0  0  0  0  0
  -22.3727   12.2434   27.2763 C   0  0  0  0  0  0  0  0  0  0  0  0
  -21.0756   12.7633   27.2316 C   0  0  0  0  0  0  0  0  0  0  0  0
  -18.5938   13.9963   24.8111 C   0  0  0  0  0  0  0  0  0  0  0  0
  -18.1477   15.3941   25.2464 C   0  0  0  0  0  0  0  0  0  0  0  0
  -12.7223   19.8580   26.2722 H   0  0  0  0  0  0  0  0  0  0  0  0
  -11.4792   19.1918   27.3825 H   0  0  0  0  0  0  0  0  0  0  0  0
  -13.0097   19.8207   28.0777 H   0  0  0  0  0  0  0  0  0  0  0  0
  -14.7208   18.5642   25.9622 H   0  0  0  0  0  0  0  0  0  0  0  0
  -15.0583   18.6196   27.7150 H   0  0  0  0  0  0  0  0  0  0  0  0
  -14.6431   16.1207   25.9535 H   0  0  0  0  0  0  0  0  0  0  0  0
  -15.1801   16.4071   28.7737 H   0  0  0  0  0  0  0  0  0  0  0  0
  -16.8607   17.4145   25.8942 H   0  0  0  0  0  0  0  0  0  0  0  0
  -17.0881   17.0286   27.6156 H   0  0  0  0  0  0  0  0  0  0  0  0
  -18.4951   15.1203   27.9254 H   0  0  0  0  0  0  0  0  0  0  0  0
  -16.8307   14.5153   28.2614 H   0  0  0  0  0  0  0  0  0  0  0  0
  -17.1541   12.5870   26.7958 H   0  0  0  0  0  0  0  0  0  0  0  0
  -18.4941   12.6558   27.9892 H   0  0  0  0  0  0  0  0  0  0  0  0
  -20.2439   11.8265   24.0598 H   0  0  0  0  0  0  0  0  0  0  0  0
  -22.5343   10.9095   24.1507 H   0  0  0  0  0  0  0  0  0  0  0  0
  -22.9732   12.3680   28.1682 H   0  0  0  0  0  0  0  0  0  0  0  0
  -20.6913   13.3017   28.0886 H   0  0  0  0  0  0  0  0  0  0  0  0
  -19.4348   14.0932   24.0901 H   0  0  0  0  0  0  0  0  0  0  0  0
  -17.7532   13.4775   24.3013 H   0  0  0  0  0  0  0  0  0  0  0  0
  -17.7366   15.9161   24.3540 H   0  0  0  0  0  0  0  0  0  0  0  0
  -19.0308   15.9664   25.6126 H   0  0  0  0  0  0  0  0  0  0  0  0
  1  2  1  0
  2  3  1  0
  3  4  1  0
  4  5  1  0
  4  6  1  0
  6  7  1  0
  7  8  1  0
  8  9  1  0
  9 10  1  0
 10 11  1  0
 11 12  2  0
 12 13  1  0
 13 14  2  0
 14 15  1  0
 14 16  1  0
 16 17  2  0
 10 18  1  0
 18 19  1  0
 19  7  1  0
 17 11  1  0
  1 20  1  0
  1 21  1  0
  1 22  1  0
  3 23  1  0
  3 24  1  0
  4 25  1  0
  5 26  1  0
  6 27  1  0
  6 28  1  0
  8 29  1  0
  8 30  1  0
  9 31  1  0
  9 32  1  0
 12 33  1  0
 13 34  1  0
 16 35  1  0
 17 36  1  0
 18 37  1  0
 18 38  1  0
 19 39  1  0
 19 40  1  0
M  END
>  <CHROM.1>  (1) 
-178.06730804,58.16597276,62.20505167,167.39030411,97.97201775,-139.87407236
-0.11443315,-0.57746868,-1.71430578

>  <Name>  (1) 
COC[C@@H](O)CN1CCN(c2ccc(F)cc2)CC1

>  <RI>  (1) 
0

>  <Rbt.Current_Directory>  (1) 
/data/out

>  <Rbt.Executable>  (1) 
rbdock ($Id: //depot/dev/client3/rdock/2013.1/src/exe/rbdock.cxx#4 $)

>  <Rbt.Library>  (1) 
libRbt.so (2013.1, Build901 2013/11/27)

>  <Rbt.Parameter_File>  (1) 
/python_libraries/phenodiscovery/docking/templates/RDOCK_TETHER.conf

>  <Rbt.Receptor>  (1) 
/data/out/rdock-opt/grid/rdock-grid.prm

>  <SCORE>  (1) 
-16.9076

>  <SCORE.INTER>  (1) 
-11.9914

>  <SCORE.INTER.CONST>  (1) 
1

>  <SCORE.INTER.POLAR>  (1) 
-0.91065

>  <SCORE.INTER.REPUL>  (1) 
0

>  <SCORE.INTER.ROT>  (1) 
5

>  <SCORE.INTER.VDW>  (1) 
-19.2952

>  <SCORE.INTER.norm>  (1) 
-0.631125

>  <SCORE.INTRA>  (1) 
-4.91621

>  <SCORE.INTRA.DIHEDRAL>  (1) 
-11.0821

>  <SCORE.INTRA.DIHEDRAL.0>  (1) 
19.548

>  <SCORE.INTRA.POLAR>  (1) 
0

>  <SCORE.INTRA.POLAR.0>  (1) 
0

>  <SCORE.INTRA.REPUL>  (1) 
0

>  <SCORE.INTRA.REPUL.0>  (1) 
0

>  <SCORE.INTRA.VDW>  (1) 
0.62483

>  <SCORE.INTRA.VDW.0>  (1) 
1.74396

>  <SCORE.INTRA.norm>  (1) 
-0.258748

>  <SCORE.RESTR>  (1) 
0

>  <SCORE.RESTR.CAVITY>  (1) 
0

>  <SCORE.RESTR.norm>  (1) 
0

>  <SCORE.SYSTEM>  (1) 
0

>  <SCORE.SYSTEM.CONST>  (1) 
0

>  <SCORE.SYSTEM.DIHEDRAL>  (1) 
0

>  <SCORE.SYSTEM.norm>  (1) 
0

>  <SCORE.heavy>  (1) 
19

>  <SCORE.norm>  (1) 
-0.889873

>  <TETHERED ATOMS>  (1) 
10,18,19,15,9,11,6,7,8,14,13,16,17,12

>  <skeledock_score>  (1) 
107

$$$$
