CC(=O)NCC(=O)Nc1ccc(Cc2ccncc2)cc1
     RDKit          3D

 38 39  0  0  0  0  0  0  0  0999 V2000
  -11.7046   19.9864   27.7991 C   0  0  0  0  0  0  0  0  0  0  0  0
  -13.1744   20.0784   27.5430 C   0  0  0  0  0  0  0  0  0  0  0  0
  -13.7562   21.1861   27.6968 O   0  0  0  0  0  0  0  0  0  0  0  0
  -13.9157   18.9219   27.1269 N   0  0  0  0  0  0  0  0  0  0  0  0
  -15.3534   18.9665   26.8708 C   0  0  0  0  0  0  0  0  0  0  0  0
  -15.9351   17.5862   26.9370 C   0  0  0  0  0  0  0  0  0  0  0  0
  -15.5572   16.8057   27.8525 O   0  0  0  0  0  0  0  0  0  0  0  0
  -16.8897   17.1559   25.9518 N   0  0  0  0  0  0  0  0  0  0  0  0
  -17.6582   15.9442   26.0482 C   0  0  0  0  0  0  0  0  0  0  0  0
  -17.9315   15.3436   27.2900 C   0  0  0  0  0  0  0  0  0  0  0  0
  -18.6388   14.1400   27.3521 C   0  0  0  0  0  0  0  0  0  0  0  0
  -19.0959   13.5252   26.1767 C   0  0  0  0  0  0  0  0  0  0  0  0
  -19.7982   12.1955   26.2354 C   0  0  0  0  0  0  0  0  0  0  0  0
  -21.2918   12.3672   26.1767 C   0  0  0  0  0  0  0  0  0  0  0  0
  -21.9607   13.1232   27.1510 C   0  0  0  0  0  0  0  0  0  0  0  0
  -23.3429   13.3007   27.0547 C   0  0  0  0  0  0  0  0  0  0  0  0
  -24.0327   12.7435   26.0243 N   0  0  0  0  0  0  0  0  0  0  0  0
  -23.4109   12.0024   25.0691 C   0  0  0  0  0  0  0  0  0  0  0  0
  -22.0301   11.7985   25.1281 C   0  0  0  0  0  0  0  0  0  0  0  0
  -18.8902   14.1626   24.9437 C   0  0  0  0  0  0  0  0  0  0  0  0
  -18.1783   15.3640   24.8813 C   0  0  0  0  0  0  0  0  0  0  0  0
  -11.1652   20.6790   27.1198 H   0  0  0  0  0  0  0  0  0  0  0  0
  -11.3343   18.9544   27.6256 H   0  0  0  0  0  0  0  0  0  0  0  0
  -11.4930   20.2695   28.8514 H   0  0  0  0  0  0  0  0  0  0  0  0
  -13.4101   18.0226   26.9606 H   0  0  0  0  0  0  0  0  0  0  0  0
  -15.5379   19.3839   25.8576 H   0  0  0  0  0  0  0  0  0  0  0  0
  -15.8401   19.6404   27.6079 H   0  0  0  0  0  0  0  0  0  0  0  0
  -16.9705   17.7161   25.0732 H   0  0  0  0  0  0  0  0  0  0  0  0
  -17.6067   15.8039   28.2133 H   0  0  0  0  0  0  0  0  0  0  0  0
  -18.8173   13.6801   28.3161 H   0  0  0  0  0  0  0  0  0  0  0  0
  -19.4464   11.5602   25.3928 H   0  0  0  0  0  0  0  0  0  0  0  0
  -19.5248   11.6495   27.1650 H   0  0  0  0  0  0  0  0  0  0  0  0
  -21.4192   13.5738   27.9734 H   0  0  0  0  0  0  0  0  0  0  0  0
  -23.8677   13.8842   27.7995 H   0  0  0  0  0  0  0  0  0  0  0  0
  -23.9884   11.5724   24.2617 H   0  0  0  0  0  0  0  0  0  0  0  0
  -21.5402   11.2143   24.3591 H   0  0  0  0  0  0  0  0  0  0  0  0
  -19.2595   13.7159   24.0287 H   0  0  0  0  0  0  0  0  0  0  0  0
  -18.0050   15.8286   23.9187 H   0  0  0  0  0  0  0  0  0  0  0  0
  1  2  1  0
  2  3  2  0
  2  4  1  0
  4  5  1  0
  5  6  1  0
  6  7  2  0
  6  8  1  0
  8  9  1  0
  9 10  2  0
 10 11  1  0
 11 12  2  0
 12 13  1  0
 13 14  1  0
 14 15  2  0
 15 16  1  0
 16 17  2  0
 17 18  1  0
 18 19  2  0
 12 20  1  0
 20 21  2  0
 21  9  1  0
 19 14  1  0
  1 22  1  0
  1 23  1  0
  1 24  1  0
  4 25  1  0
  5 26  1  0
  5 27  1  0
  8 28  1  0
 10 29  1  0
 11 30  1  0
 13 31  1  0
 13 32  1  0
 15 33  1  0
 16 34  1  0
 18 35  1  0
 19 36  1  0
 20 37  1  0
 21 38  1  0
M  END
>  <CHROM.1>  (1) 
-159.84291375,42.04642884,24.57997935,98.82120860,-59.33477741,-2.79269739
0.49671926,1.10637943

>  <Name>  (1) 
CC(=O)NCC(=O)Nc1ccc(Cc2ccncc2)cc1

>  <RI>  (1) 
1.26605e+07

>  <Rbt.Current_Directory>  (1) 
/data/out

>  <Rbt.Executable>  (1) 
rbdock ($Id: //depot/dev/client3/rdock/2013.1/src/exe/rbdock.cxx#4 $)

>  <Rbt.Library>  (1) 
libRbt.so (2013.1, Build901 2013/11/27)

>  <Rbt.Parameter_File>  (1) 
/python_libraries/phenodiscovery/docking/templates/RDOCK_TETHER.conf

>  <Rbt.Receptor>  (1) 
/data/out/rdock-opt/grid/rdock-grid.prm

>  <SCORE>  (1) 
-16.5261

>  <SCORE.INTER>  (1) 
-17.5407

>  <SCORE.INTER.CONST>  (1) 
1

>  <SCORE.INTER.POLAR>  (1) 
-2.35966

>  <SCORE.INTER.REPUL>  (1) 
1

>  <SCORE.INTER.ROT>  (1) 
5

>  <SCORE.INTER.VDW>  (1) 
-24.9179

>  <SCORE.INTER.norm>  (1) 
-0.835273

>  <SCORE.INTRA>  (1) 
1.0146

>  <SCORE.INTRA.DIHEDRAL>  (1) 
-1.55369

>  <SCORE.INTRA.DIHEDRAL.0>  (1) 
7.14508

>  <SCORE.INTRA.POLAR>  (1) 
0

>  <SCORE.INTRA.POLAR.0>  (1) 
0

>  <SCORE.INTRA.REPUL>  (1) 
0

>  <SCORE.INTRA.REPUL.0>  (1) 
0

>  <SCORE.INTRA.VDW>  (1) 
1.79145

>  <SCORE.INTRA.VDW.0>  (1) 
-2.1016

>  <SCORE.INTRA.norm>  (1) 
0.0483145

>  <SCORE.RESTR>  (1) 
0

>  <SCORE.RESTR.CAVITY>  (1) 
0

>  <SCORE.RESTR.norm>  (1) 
0

>  <SCORE.SYSTEM>  (1) 
0

>  <SCORE.SYSTEM.CONST>  (1) 
0

>  <SCORE.SYSTEM.DIHEDRAL>  (1) 
0

>  <SCORE.SYSTEM.norm>  (1) 
0

>  <SCORE.heavy>  (1) 
21

>  <SCORE.norm>  (1) 
-0.786959

>  <TETHERED ATOMS>  (1) 
13,17,12,14,8,9,6,7,21,11,20,10,18,19,16,15

>  <skeledock_score>  (1) 
121

$$$$
