Cc1cc(F)cc(S(=O)(=O)NCC[C@@H](C)O)c1
     RDKit          3D

 33 33  0  0  0  0  0  0  0  0999 V2000
  -19.0454   12.8351   26.8176 C   0  0  0  0  0  0  0  0  0  0  0  0
  -20.5272   12.6131   26.7515 C   0  0  0  0  0  0  0  0  0  0  0  0
  -21.1278   12.1156   25.5844 C   0  0  0  0  0  0  0  0  0  0  0  0
  -22.5094   11.9087   25.5386 C   0  0  0  0  0  0  0  0  0  0  0  0
  -23.0838   11.4283   24.4090 F   0  0  0  0  0  0  0  0  0  0  0  0
  -23.2997   12.1962   26.6541 C   0  0  0  0  0  0  0  0  0  0  0  0
  -22.7095   12.6932   27.8236 C   0  0  0  0  0  0  0  0  0  0  0  0
  -23.6974   13.0856   29.2257 S   0  0  0  0  0  0  0  0  0  0  0  0
  -22.9234   13.9787   30.1384 O   0  0  0  0  0  0  0  0  0  0  0  0
  -24.0184   11.8459   29.9997 O   0  0  0  0  0  0  0  0  0  0  0  0
  -25.1504   13.9036   28.7307 N   0  0  0  0  0  0  0  0  0  0  0  0
  -25.8920   14.4233   29.8875 C   0  0  0  0  0  0  0  0  0  0  0  0
  -26.9617   15.4397   29.4479 C   0  0  0  0  0  0  0  0  0  0  0  0
  -26.4517   16.5305   28.4842 C   0  0  0  0  0  0  0  0  0  0  0  0
  -25.2551   17.3056   29.0473 C   0  0  0  0  0  0  0  0  0  0  0  0
  -26.1199   15.9585   27.2453 O   0  0  0  0  0  0  0  0  0  0  0  0
  -21.3250   12.9036   27.8680 C   0  0  0  0  0  0  0  0  0  0  0  0
  -18.6116   12.2153   27.6305 H   0  0  0  0  0  0  0  0  0  0  0  0
  -18.5484   12.5610   25.8627 H   0  0  0  0  0  0  0  0  0  0  0  0
  -18.8379   13.9055   27.0276 H   0  0  0  0  0  0  0  0  0  0  0  0
  -20.5285   11.8868   24.7118 H   0  0  0  0  0  0  0  0  0  0  0  0
  -24.3692   12.0379   26.6029 H   0  0  0  0  0  0  0  0  0  0  0  0
  -25.7464   13.1867   28.2563 H   0  0  0  0  0  0  0  0  0  0  0  0
  -25.2109   14.9023   30.6242 H   0  0  0  0  0  0  0  0  0  0  0  0
  -26.3811   13.5829   30.4276 H   0  0  0  0  0  0  0  0  0  0  0  0
  -27.7717   14.8818   28.9291 H   0  0  0  0  0  0  0  0  0  0  0  0
  -27.4260   15.9184   30.3359 H   0  0  0  0  0  0  0  0  0  0  0  0
  -27.2892   17.2533   28.3427 H   0  0  0  0  0  0  0  0  0  0  0  0
  -24.3417   16.6751   29.0470 H   0  0  0  0  0  0  0  0  0  0  0  0
  -25.0573   18.1966   28.4146 H   0  0  0  0  0  0  0  0  0  0  0  0
  -25.4671   17.6518   30.0814 H   0  0  0  0  0  0  0  0  0  0  0  0
  -25.4996   15.2059   27.4326 H   0  0  0  0  0  0  0  0  0  0  0  0
  -20.8681   13.2953   28.7691 H   0  0  0  0  0  0  0  0  0  0  0  0
  1  2  1  0
  2  3  2  0
  3  4  1  0
  4  5  1  0
  4  6  2  0
  6  7  1  0
  7  8  1  0
  8  9  2  0
  8 10  2  0
  8 11  1  0
 11 12  1  0
 12 13  1  0
 13 14  1  0
 14 15  1  0
 14 16  1  0
  7 17  2  0
 17  2  1  0
  1 18  1  0
  1 19  1  0
  1 20  1  0
  3 21  1  0
  6 22  1  0
 11 23  1  0
 12 24  1  0
 12 25  1  0
 13 26  1  0
 13 27  1  0
 14 28  1  0
 15 29  1  0
 15 30  1  0
 15 31  1  0
 16 32  1  0
 17 33  1  0
M  END
>  <CHROM.1>  (1) 
-161.96374066,-171.30783881,165.43923793,-48.88283109,-55.61155096,-52.60885671
2.09659951,0.10900389,1.23122021

>  <Name>  (1) 
Cc1cc(F)cc(S(=O)(=O)NCC[C@@H](C)O)c1

>  <RI>  (1) 
2.09297e+07

>  <Rbt.Current_Directory>  (1) 
/data/out

>  <Rbt.Executable>  (1) 
rbdock ($Id: //depot/dev/client3/rdock/2013.1/src/exe/rbdock.cxx#4 $)

>  <Rbt.Library>  (1) 
libRbt.so (2013.1, Build901 2013/11/27)

>  <Rbt.Parameter_File>  (1) 
/python_libraries/phenodiscovery/docking/templates/RDOCK_TETHER.conf

>  <Rbt.Receptor>  (1) 
/data/out/rdock-opt/grid/rdock-grid.prm

>  <SCORE>  (1) 
-16.1024

>  <SCORE.INTER>  (1) 
-12.3179

>  <SCORE.INTER.CONST>  (1) 
1

>  <SCORE.INTER.POLAR>  (1) 
-1.50276

>  <SCORE.INTER.REPUL>  (1) 
0

>  <SCORE.INTER.ROT>  (1) 
5

>  <SCORE.INTER.VDW>  (1) 
-17.6085

>  <SCORE.INTER.norm>  (1) 
-0.72458

>  <SCORE.INTRA>  (1) 
-3.7845

>  <SCORE.INTRA.DIHEDRAL>  (1) 
-1.93959

>  <SCORE.INTRA.DIHEDRAL.0>  (1) 
4.90687

>  <SCORE.INTRA.POLAR>  (1) 
-0.815521

>  <SCORE.INTRA.POLAR.0>  (1) 
0

>  <SCORE.INTRA.REPUL>  (1) 
0

>  <SCORE.INTRA.REPUL.0>  (1) 
0

>  <SCORE.INTRA.VDW>  (1) 
-0.0419367

>  <SCORE.INTRA.VDW.0>  (1) 
-2.10701

>  <SCORE.INTRA.norm>  (1) 
-0.222618

>  <SCORE.RESTR>  (1) 
0

>  <SCORE.RESTR.CAVITY>  (1) 
0

>  <SCORE.RESTR.norm>  (1) 
0

>  <SCORE.SYSTEM>  (1) 
0

>  <SCORE.SYSTEM.CONST>  (1) 
0

>  <SCORE.SYSTEM.DIHEDRAL>  (1) 
0

>  <SCORE.SYSTEM.norm>  (1) 
0

>  <SCORE.heavy>  (1) 
17

>  <SCORE.norm>  (1) 
-0.947198

>  <TETHERED ATOMS>  (1) 
8,10,9,11,7,3,2,5,1,17,6,4

>  <skeledock_score>  (1) 
91

$$$$
