CCCC(C)S(=O)(=O)NCCc1ccc(F)cc1
     RDKit          3D

 38 38  0  0  0  0  0  0  0  0999 V2000
  -11.3297   20.3621   27.8328 C   0  0  0  0  0  0  0  0  0  0  0  0
  -12.7580   20.0505   27.3848 C   0  0  0  0  0  0  0  0  0  0  0  0
  -12.8955   18.6493   26.7533 C   0  0  0  0  0  0  0  0  0  0  0  0
  -14.2982   18.2843   26.2085 C   0  0  0  0  0  0  0  0  0  0  0  0
  -14.7106   19.1152   24.9907 C   0  0  0  0  0  0  0  0  0  0  0  0
  -15.5718   18.2478   27.4896 S   0  0  0  0  0  0  0  0  0  0  0  0
  -15.7725   19.6204   28.0532 O   0  0  0  0  0  0  0  0  0  0  0  0
  -15.0617   17.3983   28.6081 O   0  0  0  0  0  0  0  0  0  0  0  0
  -17.1151   17.6494   26.9391 N   0  0  0  0  0  0  0  0  0  0  0  0
  -17.0195   16.2400   26.5543 C   0  0  0  0  0  0  0  0  0  0  0  0
  -18.4147   15.6729   26.2894 C   0  0  0  0  0  0  0  0  0  0  0  0
  -18.3182   14.2301   25.8771 C   0  0  0  0  0  0  0  0  0  0  0  0
  -18.2084   13.2207   26.8479 C   0  0  0  0  0  0  0  0  0  0  0  0
  -18.0763   11.8839   26.4602 C   0  0  0  0  0  0  0  0  0  0  0  0
  -18.0478   11.5478   25.1032 C   0  0  0  0  0  0  0  0  0  0  0  0
  -17.9010   10.2539   24.7275 F   0  0  0  0  0  0  0  0  0  0  0  0
  -18.1589   12.5474   24.1325 C   0  0  0  0  0  0  0  0  0  0  0  0
  -18.2928   13.8846   24.5160 C   0  0  0  0  0  0  0  0  0  0  0  0
  -11.3016   21.3682   28.3016 H   0  0  0  0  0  0  0  0  0  0  0  0
  -10.6279   20.3587   26.9762 H   0  0  0  0  0  0  0  0  0  0  0  0
  -10.9903   19.6166   28.5830 H   0  0  0  0  0  0  0  0  0  0  0  0
  -13.1181   20.8432   26.7032 H   0  0  0  0  0  0  0  0  0  0  0  0
  -13.4051   20.0925   28.2881 H   0  0  0  0  0  0  0  0  0  0  0  0
  -12.1452   18.5220   25.9418 H   0  0  0  0  0  0  0  0  0  0  0  0
  -12.6247   17.8945   27.5235 H   0  0  0  0  0  0  0  0  0  0  0  0
  -14.2097   17.2365   25.8455 H   0  0  0  0  0  0  0  0  0  0  0  0
  -15.6143   18.6721   24.5227 H   0  0  0  0  0  0  0  0  0  0  0  0
  -13.8998   19.1066   24.2316 H   0  0  0  0  0  0  0  0  0  0  0  0
  -14.9293   20.1651   25.2655 H   0  0  0  0  0  0  0  0  0  0  0  0
  -17.4106   18.2040   26.1065 H   0  0  0  0  0  0  0  0  0  0  0  0
  -16.3965   16.1282   25.6412 H   0  0  0  0  0  0  0  0  0  0  0  0
  -16.5580   15.6572   27.3816 H   0  0  0  0  0  0  0  0  0  0  0  0
  -19.0390   15.7656   27.2051 H   0  0  0  0  0  0  0  0  0  0  0  0
  -18.9115   16.2632   25.4882 H   0  0  0  0  0  0  0  0  0  0  0  0
  -18.2158   13.4704   27.9018 H   0  0  0  0  0  0  0  0  0  0  0  0
  -17.9872   11.1102   27.2119 H   0  0  0  0  0  0  0  0  0  0  0  0
  -18.1338   12.2874   23.0821 H   0  0  0  0  0  0  0  0  0  0  0  0
  -18.3641   14.6504   23.7535 H   0  0  0  0  0  0  0  0  0  0  0  0
  1  2  1  0
  2  3  1  0
  3  4  1  0
  4  5  1  0
  4  6  1  0
  6  7  2  0
  6  8  2  0
  6  9  1  0
  9 10  1  0
 10 11  1  0
 11 12  1  0
 12 13  2  0
 13 14  1  0
 14 15  2  0
 15 16  1  0
 15 17  1  0
 17 18  2  0
 18 12  1  0
  1 19  1  0
  1 20  1  0
  1 21  1  0
  2 22  1  0
  2 23  1  0
  3 24  1  0
  3 25  1  0
  4 26  1  0
  5 27  1  0
  5 28  1  0
  5 29  1  0
  9 30  1  0
 10 31  1  0
 10 32  1  0
 11 33  1  0
 11 34  1  0
 13 35  1  0
 14 36  1  0
 17 37  1  0
 18 38  1  0
M  END
>  <CHROM.1>  (1) 
-177.04444246,67.39959542,65.20433861,65.24953713,171.00152126,179.28582994
83.00233369,1.10774828,-0.69464528,0.04382599

>  <Name>  (1) 
CCCC(C)S(=O)(=O)NCCc1ccc(F)cc1

>  <RI>  (1) 
0

>  <Rbt.Current_Directory>  (1) 
/data/out

>  <Rbt.Executable>  (1) 
rbdock ($Id: //depot/dev/client3/rdock/2013.1/src/exe/rbdock.cxx#4 $)

>  <Rbt.Library>  (1) 
libRbt.so (2013.1, Build901 2013/11/27)

>  <Rbt.Parameter_File>  (1) 
/python_libraries/phenodiscovery/docking/templates/RDOCK_TETHER.conf

>  <Rbt.Receptor>  (1) 
/data/out/rdock-opt/grid/rdock-grid.prm

>  <SCORE>  (1) 
-15.501

>  <SCORE.INTER>  (1) 
-11.3437

>  <SCORE.INTER.CONST>  (1) 
1

>  <SCORE.INTER.POLAR>  (1) 
-0.87178

>  <SCORE.INTER.REPUL>  (1) 
0

>  <SCORE.INTER.ROT>  (1) 
7

>  <SCORE.INTER.VDW>  (1) 
-20.7797

>  <SCORE.INTER.norm>  (1) 
-0.630208

>  <SCORE.INTRA>  (1) 
-4.15727

>  <SCORE.INTRA.DIHEDRAL>  (1) 
-6.40927

>  <SCORE.INTRA.DIHEDRAL.0>  (1) 
7.71171

>  <SCORE.INTRA.POLAR>  (1) 
0

>  <SCORE.INTRA.POLAR.0>  (1) 
0

>  <SCORE.INTRA.REPUL>  (1) 
0

>  <SCORE.INTRA.REPUL.0>  (1) 
0

>  <SCORE.INTRA.VDW>  (1) 
-0.952634

>  <SCORE.INTRA.VDW.0>  (1) 
-1.56871

>  <SCORE.INTRA.norm>  (1) 
-0.230959

>  <SCORE.RESTR>  (1) 
0

>  <SCORE.RESTR.CAVITY>  (1) 
0

>  <SCORE.RESTR.norm>  (1) 
0

>  <SCORE.SYSTEM>  (1) 
0

>  <SCORE.SYSTEM.CONST>  (1) 
0

>  <SCORE.SYSTEM.DIHEDRAL>  (1) 
0

>  <SCORE.SYSTEM.norm>  (1) 
0

>  <SCORE.heavy>  (1) 
18

>  <SCORE.norm>  (1) 
-0.861168

>  <TETHERED ATOMS>  (1) 
10,4,11,15,12,16,6,9,8,7,14,18,17,13

>  <skeledock_score>  (1) 
107

$$$$
