Cc1cc(N(C)CC(O)CO)n2ncnc2n1
     RDKit          3D

 32 33  0  0  0  0  0  0  0  0999 V2000
  -23.4206   13.8634   29.9046 C   0  0  0  0  0  0  0  0  0  0  0  0
  -22.9013   13.4548   28.5627 C   0  0  0  0  0  0  0  0  0  0  0  0
  -21.6206   13.8715   28.1418 C   0  0  0  0  0  0  0  0  0  0  0  0
  -21.1219   13.4535   26.8827 C   0  0  0  0  0  0  0  0  0  0  0  0
  -19.7709   13.8153   26.4555 N   0  0  0  0  0  0  0  0  0  0  0  0
  -18.8830   14.5002   27.4106 C   0  0  0  0  0  0  0  0  0  0  0  0
  -19.2033   13.4402   25.1427 C   0  0  0  0  0  0  0  0  0  0  0  0
  -18.5436   12.0452   25.1468 C   0  0  0  0  0  0  0  0  0  0  0  0
  -19.4296   11.0717   25.6329 O   0  0  0  0  0  0  0  0  0  0  0  0
  -18.0242   11.6434   23.7532 C   0  0  0  0  0  0  0  0  0  0  0  0
  -17.5828   10.3121   23.7358 O   0  0  0  0  0  0  0  0  0  0  0  0
  -21.9582   12.6646   26.1368 N   0  0  0  0  0  0  0  0  0  0  0  0
  -21.7604   12.1180   24.9528 N   0  0  0  0  0  0  0  0  0  0  0  0
  -22.8935   11.4336   24.6753 C   0  0  0  0  0  0  0  0  0  0  0  0
  -23.8180   11.5167   25.6639 N   0  0  0  0  0  0  0  0  0  0  0  0
  -23.1770   12.2971   26.5500 C   0  0  0  0  0  0  0  0  0  0  0  0
  -23.6666   12.6698   27.7542 N   0  0  0  0  0  0  0  0  0  0  0  0
  -22.7431   13.4864   30.6994 H   0  0  0  0  0  0  0  0  0  0  0  0
  -24.4362   13.4471   30.0744 H   0  0  0  0  0  0  0  0  0  0  0  0
  -23.4746   14.9708   29.9641 H   0  0  0  0  0  0  0  0  0  0  0  0
  -21.0385   14.4992   28.8015 H   0  0  0  0  0  0  0  0  0  0  0  0
  -17.8442   14.5947   27.0314 H   0  0  0  0  0  0  0  0  0  0  0  0
  -18.8412   13.9305   28.3632 H   0  0  0  0  0  0  0  0  0  0  0  0
  -19.2535   15.5280   27.6048 H   0  0  0  0  0  0  0  0  0  0  0  0
  -19.9899   13.4331   24.3574 H   0  0  0  0  0  0  0  0  0  0  0  0
  -18.5043   14.2145   24.7772 H   0  0  0  0  0  0  0  0  0  0  0  0
  -17.6632   12.1104   25.8283 H   0  0  0  0  0  0  0  0  0  0  0  0
  -20.2923   11.2047   25.1599 H   0  0  0  0  0  0  0  0  0  0  0  0
  -18.8328   11.7628   23.0012 H   0  0  0  0  0  0  0  0  0  0  0  0
  -17.1965   12.3257   23.4520 H   0  0  0  0  0  0  0  0  0  0  0  0
  -16.8339   10.2487   24.3842 H   0  0  0  0  0  0  0  0  0  0  0  0
  -23.0434   10.8723   23.7630 H   0  0  0  0  0  0  0  0  0  0  0  0
  1  2  1  0
  2  3  1  0
  3  4  2  0
  4  5  1  0
  5  6  1  0
  5  7  1  0
  7  8  1  0
  8  9  1  0
  8 10  1  0
 10 11  1  0
  4 12  1  0
 12 13  1  0
 13 14  2  0
 14 15  1  0
 15 16  2  0
 16 17  1  0
 17  2  2  0
 16 12  1  0
  1 18  1  0
  1 19  1  0
  1 20  1  0
  3 21  1  0
  6 22  1  0
  6 23  1  0
  6 24  1  0
  7 25  1  0
  7 26  1  0
  8 27  1  0
  9 28  1  0
 10 29  1  0
 10 30  1  0
 11 31  1  0
 14 32  1  0
M  END
>  <CHROM.1>  (1) 
6.38354005,-86.63889858,53.26168572,47.98046873,-172.48276276,-61.46954144
-0.35308642,0.31040943,1.04844819

>  <Name>  (1) 
Cc1cc(N(C)CC(O)CO)n2ncnc2n1

>  <RI>  (1) 
0

>  <Rbt.Current_Directory>  (1) 
/data/out

>  <Rbt.Executable>  (1) 
rbdock ($Id: //depot/dev/client3/rdock/2013.1/src/exe/rbdock.cxx#4 $)

>  <Rbt.Library>  (1) 
libRbt.so (2013.1, Build901 2013/11/27)

>  <Rbt.Parameter_File>  (1) 
/python_libraries/phenodiscovery/docking/templates/RDOCK_TETHER.conf

>  <Rbt.Receptor>  (1) 
/data/out/rdock-opt/grid/rdock-grid.prm

>  <SCORE>  (1) 
-16.4983

>  <SCORE.INTER>  (1) 
-11.866

>  <SCORE.INTER.CONST>  (1) 
1

>  <SCORE.INTER.POLAR>  (1) 
-0.87178

>  <SCORE.INTER.REPUL>  (1) 
0.470501

>  <SCORE.INTER.ROT>  (1) 
4

>  <SCORE.INTER.VDW>  (1) 
-20.6544

>  <SCORE.INTER.norm>  (1) 
-0.697997

>  <SCORE.INTRA>  (1) 
-4.63239

>  <SCORE.INTRA.DIHEDRAL>  (1) 
-2.25726

>  <SCORE.INTRA.DIHEDRAL.0>  (1) 
6.55409

>  <SCORE.INTRA.POLAR>  (1) 
-0.98522

>  <SCORE.INTRA.POLAR.0>  (1) 
0

>  <SCORE.INTRA.REPUL>  (1) 
0

>  <SCORE.INTRA.REPUL.0>  (1) 
0

>  <SCORE.INTRA.VDW>  (1) 
-0.154013

>  <SCORE.INTRA.VDW.0>  (1) 
0.787193

>  <SCORE.INTRA.norm>  (1) 
-0.272494

>  <SCORE.RESTR>  (1) 
0

>  <SCORE.RESTR.CAVITY>  (1) 
0

>  <SCORE.RESTR.norm>  (1) 
0

>  <SCORE.SYSTEM>  (1) 
0

>  <SCORE.SYSTEM.CONST>  (1) 
0

>  <SCORE.SYSTEM.DIHEDRAL>  (1) 
0

>  <SCORE.SYSTEM.norm>  (1) 
0

>  <SCORE.heavy>  (1) 
17

>  <SCORE.norm>  (1) 
-0.970491

>  <TETHERED ATOMS>  (1) 
4,3,1,2,17,12,13,15,16,14,5,8,6,7

>  <skeledock_score>  (1) 
102

$$$$
