CCC(CO)NC(=O)CCn1c(C)nc2ccccc21
     RDKit          3D

 41 42  0  0  0  0  0  0  0  0999 V2000
  -14.0286   19.0327   27.5666 C   0  0  0  0  0  0  0  0  0  0  0  0
  -14.7690   18.0144   26.6963 C   0  0  0  0  0  0  0  0  0  0  0  0
  -16.1217   18.4989   26.1277 C   0  0  0  0  0  0  0  0  0  0  0  0
  -15.9820   19.5309   24.9915 C   0  0  0  0  0  0  0  0  0  0  0  0
  -15.3331   18.9897   23.8706 O   0  0  0  0  0  0  0  0  0  0  0  0
  -16.9521   17.3645   25.7038 N   0  0  0  0  0  0  0  0  0  0  0  0
  -18.0485   16.8588   26.4797 C   0  0  0  0  0  0  0  0  0  0  0  0
  -18.2824   17.3147   27.6321 O   0  0  0  0  0  0  0  0  0  0  0  0
  -18.9344   15.7856   25.9184 C   0  0  0  0  0  0  0  0  0  0  0  0
  -18.2768   14.4088   26.0601 C   0  0  0  0  0  0  0  0  0  0  0  0
  -19.2061   13.3545   25.6480 N   0  0  0  0  0  0  0  0  0  0  0  0
  -19.2248   12.6854   24.4635 C   0  0  0  0  0  0  0  0  0  0  0  0
  -18.2630   12.9338   23.3444 C   0  0  0  0  0  0  0  0  0  0  0  0
  -20.1970   11.7392   24.3930 N   0  0  0  0  0  0  0  0  0  0  0  0
  -20.8070   11.8421   25.5878 C   0  0  0  0  0  0  0  0  0  0  0  0
  -21.8926   11.1020   26.0489 C   0  0  0  0  0  0  0  0  0  0  0  0
  -22.3787   11.3873   27.3383 C   0  0  0  0  0  0  0  0  0  0  0  0
  -21.7732   12.3934   28.1254 C   0  0  0  0  0  0  0  0  0  0  0  0
  -20.6750   13.1229   27.6309 C   0  0  0  0  0  0  0  0  0  0  0  0
  -20.2182   12.8126   26.3477 C   0  0  0  0  0  0  0  0  0  0  0  0
  -14.5872   19.2304   28.5041 H   0  0  0  0  0  0  0  0  0  0  0  0
  -13.0374   18.6181   27.8469 H   0  0  0  0  0  0  0  0  0  0  0  0
  -13.8593   19.9823   27.0197 H   0  0  0  0  0  0  0  0  0  0  0  0
  -14.1094   17.7358   25.8456 H   0  0  0  0  0  0  0  0  0  0  0  0
  -14.9348   17.0924   27.2953 H   0  0  0  0  0  0  0  0  0  0  0  0
  -16.6227   19.0343   26.9638 H   0  0  0  0  0  0  0  0  0  0  0  0
  -15.4014   20.4065   25.3524 H   0  0  0  0  0  0  0  0  0  0  0  0
  -16.9929   19.9075   24.7091 H   0  0  0  0  0  0  0  0  0  0  0  0
  -15.4376   19.6436   23.1309 H   0  0  0  0  0  0  0  0  0  0  0  0
  -16.7527   16.9087   24.7855 H   0  0  0  0  0  0  0  0  0  0  0  0
  -19.1351   15.9987   24.8455 H   0  0  0  0  0  0  0  0  0  0  0  0
  -19.9072   15.7911   26.4549 H   0  0  0  0  0  0  0  0  0  0  0  0
  -17.3592   14.3549   25.4339 H   0  0  0  0  0  0  0  0  0  0  0  0
  -17.9565   14.2449   27.1112 H   0  0  0  0  0  0  0  0  0  0  0  0
  -18.5774   12.3755   22.4377 H   0  0  0  0  0  0  0  0  0  0  0  0
  -17.2497   12.5937   23.6425 H   0  0  0  0  0  0  0  0  0  0  0  0
  -18.2334   14.0164   23.1026 H   0  0  0  0  0  0  0  0  0  0  0  0
  -22.3499   10.3359   25.4363 H   0  0  0  0  0  0  0  0  0  0  0  0
  -23.2223   10.8335   27.7291 H   0  0  0  0  0  0  0  0  0  0  0  0
  -22.1570   12.6055   29.1148 H   0  0  0  0  0  0  0  0  0  0  0  0
  -20.2124   13.8981   28.2268 H   0  0  0  0  0  0  0  0  0  0  0  0
  1  2  1  0
  2  3  1  0
  3  4  1  0
  4  5  1  0
  3  6  1  0
  6  7  1  0
  7  8  2  0
  7  9  1  0
  9 10  1  0
 10 11  1  0
 11 12  1  0
 12 13  1  0
 12 14  2  0
 14 15  1  0
 15 16  2  0
 16 17  1  0
 17 18  2  0
 18 19  1  0
 19 20  2  0
 20 11  1  0
 20 15  1  0
  1 21  1  0
  1 22  1  0
  1 23  1  0
  2 24  1  0
  2 25  1  0
  3 26  1  0
  4 27  1  0
  4 28  1  0
  5 29  1  0
  6 30  1  0
  9 31  1  0
  9 32  1  0
 10 33  1  0
 10 34  1  0
 13 35  1  0
 13 36  1  0
 13 37  1  0
 16 38  1  0
 17 39  1  0
 18 40  1  0
 19 41  1  0
M  END
>  <CHROM.1>  (1) 
73.13343822,63.33470057,169.21275182,102.01253588,80.12267840,173.71993517
101.13528824,-0.63405596,-0.80170434,-2.34360296

>  <Name>  (1) 
CCC(CO)NC(=O)CCn1c(C)nc2ccccc21

>  <RI>  (1) 
3.70915e+07

>  <Rbt.Current_Directory>  (1) 
/data/out

>  <Rbt.Executable>  (1) 
rbdock ($Id: //depot/dev/client3/rdock/2013.1/src/exe/rbdock.cxx#4 $)

>  <Rbt.Library>  (1) 
libRbt.so (2013.1, Build901 2013/11/27)

>  <Rbt.Parameter_File>  (1) 
/python_libraries/phenodiscovery/docking/templates/RDOCK_TETHER.conf

>  <Rbt.Receptor>  (1) 
/data/out/rdock-opt/grid/rdock-grid.prm

>  <SCORE>  (1) 
-17.611

>  <SCORE.INTER>  (1) 
-16.5192

>  <SCORE.INTER.CONST>  (1) 
1

>  <SCORE.INTER.POLAR>  (1) 
-1.70888

>  <SCORE.INTER.REPUL>  (1) 
0.084046

>  <SCORE.INTER.ROT>  (1) 
6

>  <SCORE.INTER.VDW>  (1) 
-22.5293

>  <SCORE.INTER.norm>  (1) 
-0.82596

>  <SCORE.INTRA>  (1) 
-1.09178

>  <SCORE.INTRA.DIHEDRAL>  (1) 
-2.68839

>  <SCORE.INTRA.DIHEDRAL.0>  (1) 
9.61213

>  <SCORE.INTRA.POLAR>  (1) 
0

>  <SCORE.INTRA.POLAR.0>  (1) 
0

>  <SCORE.INTRA.REPUL>  (1) 
0

>  <SCORE.INTRA.REPUL.0>  (1) 
0

>  <SCORE.INTRA.VDW>  (1) 
0.252415

>  <SCORE.INTRA.VDW.0>  (1) 
-1.81546

>  <SCORE.INTRA.norm>  (1) 
-0.054589

>  <SCORE.RESTR>  (1) 
0

>  <SCORE.RESTR.CAVITY>  (1) 
0

>  <SCORE.RESTR.norm>  (1) 
0

>  <SCORE.SYSTEM>  (1) 
0

>  <SCORE.SYSTEM.CONST>  (1) 
0

>  <SCORE.SYSTEM.DIHEDRAL>  (1) 
0

>  <SCORE.SYSTEM.norm>  (1) 
0

>  <SCORE.heavy>  (1) 
20

>  <SCORE.norm>  (1) 
-0.88055

>  <TETHERED ATOMS>  (1) 
13,12,11,8,19,7,6,10,14,20,15,18,17,16,9

>  <skeledock_score>  (1) 
115

$$$$
