COC[C@H](O)CN1CCN(C(=O)c2ccco2)CC1
     RDKit          3D

 39 40  0  0  0  0  0  0  0  0999 V2000
  -15.0923   20.4380   25.1620 C   0  0  0  0  0  0  0  0  0  0  0  0
  -15.4613   19.0768   25.1848 O   0  0  0  0  0  0  0  0  0  0  0  0
  -15.2535   18.5275   26.4738 C   0  0  0  0  0  0  0  0  0  0  0  0
  -15.6808   17.0452   26.5153 C   0  0  0  0  0  0  0  0  0  0  0  0
  -14.9945   16.2997   25.5403 O   0  0  0  0  0  0  0  0  0  0  0  0
  -17.2036   16.8584   26.3736 C   0  0  0  0  0  0  0  0  0  0  0  0
  -17.5501   15.4200   26.3039 N   0  0  0  0  0  0  0  0  0  0  0  0
  -17.8375   14.9911   24.9189 C   0  0  0  0  0  0  0  0  0  0  0  0
  -18.0485   13.4761   24.8710 C   0  0  0  0  0  0  0  0  0  0  0  0
  -19.0818   13.1060   25.8420 N   0  0  0  0  0  0  0  0  0  0  0  0
  -20.2161   12.3164   25.4351 C   0  0  0  0  0  0  0  0  0  0  0  0
  -20.0775   11.4680   24.5129 O   0  0  0  0  0  0  0  0  0  0  0  0
  -21.5517   12.4980   26.0350 C   0  0  0  0  0  0  0  0  0  0  0  0
  -22.6300   11.6515   25.8610 C   0  0  0  0  0  0  0  0  0  0  0  0
  -23.6632   12.2093   26.5822 C   0  0  0  0  0  0  0  0  0  0  0  0
  -23.1569   13.3619   27.1464 C   0  0  0  0  0  0  0  0  0  0  0  0
  -21.8993   13.5088   26.7986 O   0  0  0  0  0  0  0  0  0  0  0  0
  -18.8818   13.5666   27.2194 C   0  0  0  0  0  0  0  0  0  0  0  0
  -18.6725   15.0814   27.2055 C   0  0  0  0  0  0  0  0  0  0  0  0
  -15.3513   20.8580   24.1686 H   0  0  0  0  0  0  0  0  0  0  0  0
  -15.6431   21.0247   25.9299 H   0  0  0  0  0  0  0  0  0  0  0  0
  -13.9946   20.5511   25.3008 H   0  0  0  0  0  0  0  0  0  0  0  0
  -14.1697   18.6030   26.7053 H   0  0  0  0  0  0  0  0  0  0  0  0
  -15.7744   19.0907   27.2851 H   0  0  0  0  0  0  0  0  0  0  0  0
  -15.3883   16.6346   27.5052 H   0  0  0  0  0  0  0  0  0  0  0  0
  -15.1970   16.6979   24.6536 H   0  0  0  0  0  0  0  0  0  0  0  0
  -17.7004   17.3637   27.2335 H   0  0  0  0  0  0  0  0  0  0  0  0
  -17.5454   17.4152   25.4712 H   0  0  0  0  0  0  0  0  0  0  0  0
  -18.7441   15.5080   24.5294 H   0  0  0  0  0  0  0  0  0  0  0  0
  -16.9789   15.2409   24.2574 H   0  0  0  0  0  0  0  0  0  0  0  0
  -17.0981   12.9608   25.1302 H   0  0  0  0  0  0  0  0  0  0  0  0
  -18.3358   13.1813   23.8382 H   0  0  0  0  0  0  0  0  0  0  0  0
  -22.6623   10.7379   25.2818 H   0  0  0  0  0  0  0  0  0  0  0  0
  -24.6684   11.8228   26.6836 H   0  0  0  0  0  0  0  0  0  0  0  0
  -23.7004   14.0511   27.7787 H   0  0  0  0  0  0  0  0  0  0  0  0
  -17.9742   13.0777   27.6359 H   0  0  0  0  0  0  0  0  0  0  0  0
  -19.7261   13.2967   27.8839 H   0  0  0  0  0  0  0  0  0  0  0  0
  -18.4427   15.4112   28.2424 H   0  0  0  0  0  0  0  0  0  0  0  0
  -19.6092   15.5857   26.8754 H   0  0  0  0  0  0  0  0  0  0  0  0
  1  2  1  0
  2  3  1  0
  3  4  1  0
  4  5  1  0
  4  6  1  0
  6  7  1  0
  7  8  1  0
  8  9  1  0
  9 10  1  0
 10 11  1  0
 11 12  2  0
 11 13  1  0
 13 14  2  0
 14 15  1  0
 15 16  2  0
 16 17  1  0
 10 18  1  0
 18 19  1  0
 19  7  1  0
 17 13  1  0
  1 20  1  0
  1 21  1  0
  1 22  1  0
  3 23  1  0
  3 24  1  0
  4 25  1  0
  5 26  1  0
  6 27  1  0
  6 28  1  0
  8 29  1  0
  8 30  1  0
  9 31  1  0
  9 32  1  0
 14 33  1  0
 15 34  1  0
 16 35  1  0
 18 36  1  0
 18 37  1  0
 19 38  1  0
 19 39  1  0
M  END
>  <CHROM.1>  (1) 
178.88477863,56.62634561,-58.72005551,175.19634600,-102.11063433,-169.03892965
-0.41448008,-0.37740280,-2.51131040

>  <Name>  (1) 
COC[C@H](O)CN1CCN(C(=O)c2ccco2)CC1

>  <RI>  (1) 
2.39011e+07

>  <Rbt.Current_Directory>  (1) 
/data/out

>  <Rbt.Executable>  (1) 
rbdock ($Id: //depot/dev/client3/rdock/2013.1/src/exe/rbdock.cxx#4 $)

>  <Rbt.Library>  (1) 
libRbt.so (2013.1, Build901 2013/11/27)

>  <Rbt.Parameter_File>  (1) 
/python_libraries/phenodiscovery/docking/templates/RDOCK_TETHER.conf

>  <Rbt.Receptor>  (1) 
/data/out/rdock-opt/grid/rdock-grid.prm

>  <SCORE>  (1) 
-16.6033

>  <SCORE.INTER>  (1) 
-14.6405

>  <SCORE.INTER.CONST>  (1) 
1

>  <SCORE.INTER.POLAR>  (1) 
-0.916515

>  <SCORE.INTER.REPUL>  (1) 
0.0060535

>  <SCORE.INTER.ROT>  (1) 
5

>  <SCORE.INTER.VDW>  (1) 
-21.9547

>  <SCORE.INTER.norm>  (1) 
-0.770554

>  <SCORE.INTRA>  (1) 
-1.9628

>  <SCORE.INTRA.DIHEDRAL>  (1) 
-4.66926

>  <SCORE.INTRA.DIHEDRAL.0>  (1) 
7.68784

>  <SCORE.INTRA.POLAR>  (1) 
-0.00707081

>  <SCORE.INTRA.POLAR.0>  (1) 
0

>  <SCORE.INTRA.REPUL>  (1) 
0

>  <SCORE.INTRA.REPUL.0>  (1) 
0

>  <SCORE.INTRA.VDW>  (1) 
0.395866

>  <SCORE.INTRA.VDW.0>  (1) 
0.58904

>  <SCORE.INTRA.norm>  (1) 
-0.103305

>  <SCORE.RESTR>  (1) 
0

>  <SCORE.RESTR.CAVITY>  (1) 
0

>  <SCORE.RESTR.norm>  (1) 
0

>  <SCORE.SYSTEM>  (1) 
0

>  <SCORE.SYSTEM.CONST>  (1) 
0

>  <SCORE.SYSTEM.DIHEDRAL>  (1) 
0

>  <SCORE.SYSTEM.norm>  (1) 
0

>  <SCORE.heavy>  (1) 
19

>  <SCORE.norm>  (1) 
-0.87386

>  <TETHERED ATOMS>  (1) 
10,8,9,12,13,18,7,6,19,11,14,16,15,17

>  <skeledock_score>  (1) 
107

$$$$
